##########                 Name:         CLADOSPORIN0
##########          Protonation:                   93
##########               SMILES:   C[C@@H]1CCC[C@H](O1)C[C@@H]2Cc3cc(cc(c3C(=O)O2)O)O
##########            Long Name:   8-dihydroxy-3-[[(2S,6R)-6-methyltetrahydropyran-2-yl]methyl]isochroman-1-one
##########          FlexRecCode: 1
##########               Number:                   22
##########   Ligand Source File: /raid1/people/rgc/Examples/tdt/part2/cladosporin/build_clad/cladosporin-0000001.
##########           GlobalRank: 1
##########                 Rank:                    1
##########               Setnum:                   55
##########             Matchnum:                 1352
##########                Cloud:                    1
##########        Electrostatic:           -18.886709
##########        Van der Waals:           -17.111855
##########  Ligand Polar Desolv:             3.778821
########## Ligand Apolar Desolv:            -0.608404
##########      Internal Energy:             0.000000
##########      Receptor Energy: 0.0
########## Receptor Desolvation:             0.000000
########## Receptor Hydrophobic:             0.000000
##########         Total Energy: -32.83
##########        Ligand Charge:             0.000000
##########            Arbitrary:    +999.9990
##########     heavy atom count:   21
##########           pose count:    1
##########        Ligand Energy:             0.000000
# num electro vdwattr vdwrepu polsolv apolsol rdesolv rhydroe totalscore fullpol fullapo
#   1    2.37   -0.93    0.13    0.17   -0.07    0.00    0.00       1.66    0.40   -0.17
#   2   -0.79   -0.75    0.10   -0.02   -0.05    0.00    0.00      -1.52   -0.08   -0.16
#   3    1.10   -0.79    0.08   -0.03   -0.09    0.00    0.00       0.27   -0.09   -0.24
#   4    1.33   -0.92    0.15   -0.03   -0.09    0.00    0.00       0.44   -0.09   -0.24
#   5    2.14   -0.59    0.04   -0.06   -0.07    0.00    0.00       1.46   -0.19   -0.23
#   6   -1.54   -0.40    0.01   -0.01   -0.02    0.00    0.00      -1.96   -0.04   -0.10
#   7    2.85   -0.63    0.12   -0.06   -0.04    0.00    0.00       2.24   -0.25   -0.19
#   8   -2.89   -0.62    0.20    0.01   -0.02    0.00    0.00      -3.32    0.04   -0.11
#   9    3.59   -0.73    0.13   -0.14   -0.07    0.00    0.00       2.78   -0.45   -0.23
#  10    0.07   -0.83    0.05    0.00   -0.12    0.00    0.00      -0.83    0.00   -0.40
#  11    4.32   -1.77    0.39   -0.18   -0.18    0.00    0.00       2.58   -0.46   -0.46
#  12   -4.14   -1.63    0.25    0.10   -0.13    0.00    0.00      -5.55    0.23   -0.31
#  13   13.36   -3.82    2.49   -0.80    0.63    0.00    0.00      11.87   -1.49    1.17
#  14    3.92   -0.98    0.06    0.07   -0.18    0.00    0.00       2.90    0.19   -0.46
#  15   -1.90   -0.96    0.25   -0.17   -0.08    0.00    0.00      -2.85   -0.66   -0.31
#  16   -0.76   -2.03    2.65    0.79    0.16    0.00    0.00       0.81    2.53    0.53
#  17    2.67   -0.73    0.11    0.20   -0.09    0.00    0.00       2.17    0.94   -0.40
#  18   -3.19   -0.97    0.37   -0.75   -0.03    0.00    0.00      -4.57   -3.67   -0.16
#  19   -2.08   -2.09    1.75    1.20   -0.13    0.00    0.00      -1.36    5.52   -0.62
#  20    4.63   -0.41    0.02    0.35    0.07    0.00    0.00       4.65    1.81    0.38
#  21    4.19   -0.42    0.01    0.15    0.25    0.00    0.00       4.18    0.75    1.24
#  22   -0.86   -0.53    0.23   -0.06   -0.10    0.00    0.00      -1.32   -0.17   -0.28
#  23   -1.08   -0.20    0.01   -0.01   -0.06    0.00    0.00      -1.35   -0.05   -0.28
#  24   -0.69   -0.25    0.03   -0.04   -0.04    0.00    0.00      -1.00   -0.17   -0.18
#  25   -0.57   -0.50    0.22   -0.01   -0.08    0.00    0.00      -0.94   -0.03   -0.28
#  26   -0.54   -0.39    0.09    0.04   -0.10    0.00    0.00      -0.91    0.12   -0.28
#  27   -0.23   -0.21    0.02    0.02   -0.07    0.00    0.00      -0.47    0.07   -0.28
#  28   -1.02   -0.36    0.09   -0.01   -0.06    0.00    0.00      -1.34   -0.03   -0.22
#  29   -0.43   -0.64    0.47    0.04   -0.09    0.00    0.00      -0.66    0.12   -0.28
#  30   -1.41   -0.30    0.04    0.06   -0.09    0.00    0.00      -1.70    0.19   -0.28
#  31   -0.70   -0.11    0.00    0.02   -0.03    0.00    0.00      -0.82    0.18   -0.28
#  32   -1.51   -0.14    0.00   -0.02   -0.04    0.00    0.00      -1.71   -0.14   -0.21
#  33   -3.51   -0.50    0.29    0.12   -0.08    0.00    0.00      -3.68    0.43   -0.28
#  34   -2.08   -0.10    0.01    0.08   -0.03    0.00    0.00      -2.13    0.74   -0.28
#  35   -3.33   -0.38    0.39   -0.01   -0.05    0.00    0.00      -3.38   -0.07   -0.27
#  36   -2.39   -0.18    0.02    0.12   -0.05    0.00    0.00      -2.48    0.69   -0.28
#  37   -4.45   -0.48    0.33    0.43   -0.09    0.00    0.00      -4.27    1.27   -0.28
#  38   -4.18   -0.88    0.74    0.47   -0.11    0.00    0.00      -3.97    1.19   -0.28
#  39  -12.22   -0.06    0.00    1.91    0.65    0.00    0.00      -9.71    3.56    1.22
#  40   -4.03   -0.30    0.08    0.01   -0.07    0.00    0.00      -4.31    0.02   -0.28
#  41   -2.90   -0.02    0.00   -0.14    0.33    0.00    0.00      -2.73   -0.52    1.22

@<TRIPOS>MOLECULE
     CLADOSPORIN0        93
   41    43     0     0     0



@<TRIPOS>ATOM
      1 C1          8.3457    -8.5799    97.5168 C.3        1          -0.1877
      2 C2          8.7742    -9.3813    96.2857 C.3        1           0.0889
      3 C3         10.3018    -9.4732    96.2427 C.3        1          -0.1503
      4 C4         10.8865    -8.0640    96.1067 C.3        1          -0.1248
      5 C5         10.3085    -7.4021    94.8521 C.3        1          -0.1493
      6 C6          8.7807    -7.3901    94.9488 C.3        1           0.0839
      7 C7          8.1933    -6.7848    93.6724 C.3        1          -0.1052
      8 C8          6.6664    -6.7729    93.7694 C.3        1           0.1026
      9 C9          6.2385    -5.9361    94.9757 C.3        1          -0.1209
     10 C10         4.7644    -6.1090    95.2324 C.ar       1          -0.0029
     11 C11         4.0750    -5.1632    95.9564 C.ar       1          -0.1664
     12 C12         2.7137    -5.3215    96.1981 C.ar       1           0.1686
     13 O1          2.0428    -4.3828    96.9125 O.3        1          -0.4930
     14 C13         2.0377    -6.4318    95.7137 C.ar       1          -0.1916
     15 C14         2.7187    -7.3911    94.9827 C.ar       1           0.2013
     16 O2          2.0637    -8.4795    94.5068 O.3        1          -0.4776
     17 C15         4.0886    -7.2295    94.7380 C.ar       1          -0.2210
     18 C16         4.8341    -8.2329    93.9541 C.2        1           0.5332
     19 O3          4.2626    -9.1254    93.3590 O.2        1          -0.4364
     20 O4          6.1868    -8.1152    93.9263 O.3        1          -0.3521
     21 O5          8.3041    -8.7283    95.1047 O.3        1          -0.3763
     22 H1          8.7044    -9.0781    98.4174 H          1           0.0632
     23 H2          8.7694    -7.5772    97.4629 H          1           0.0664
     24 H3          7.2582    -8.5137    97.5467 H          1           0.0638
     25 H4          8.3508   -10.3843    96.3396 H          1           0.1015
     26 H5         10.6652    -9.9311    97.1627 H          1           0.0732
     27 H6         10.6063   -10.0780    95.3886 H          1           0.0710
     28 H7         10.6236    -7.4738    96.9846 H          1           0.0668
     29 H8         11.9713    -8.1264    96.0192 H          1           0.0676
     30 H9         10.6767    -6.3789    94.7775 H          1           0.0739
     31 H10        10.6132    -7.9650    93.9700 H          1           0.0718
     32 H11         8.4755    -6.7930    95.8082 H          1           0.0733
     33 H12         8.5577    -5.7645    93.5532 H          1           0.0934
     34 H13         8.4982    -7.3822    92.8133 H          1           0.0980
     35 H14         6.2477    -6.3412    92.8603 H          1           0.0888
     36 H15         6.7981    -6.2566    95.8545 H          1           0.1035
     37 H16         6.4499    -4.8849    94.7793 H          1           0.1068
     38 H17         4.5923    -4.2955    96.3385 H          1           0.1432
     39 H18         1.1026    -4.5760    97.0305 H          1           0.4010
     40 H19         0.9815    -6.5483    95.9068 H          1           0.1469
     41 H20         1.1225    -8.5000    94.7279 H          1           0.4028
@<TRIPOS>BOND
     1    1    2 1
     2    1   22 1
     3    1   23 1
     4    1   24 1
     5    2   21 1
     6    2    3 1
     7    2   25 1
     8    3    4 1
     9    3   26 1
    10    3   27 1
    11    4    5 1
    12    4   28 1
    13    4   29 1
    14    5    6 1
    15    5   30 1
    16    5   31 1
    17    6    7 1
    18    6   21 1
    19    6   32 1
    20    7    8 1
    21    7   33 1
    22    7   34 1
    23    8   20 1
    24    8    9 1
    25    8   35 1
    26    9   10 1
    27    9   36 1
    28    9   37 1
    29   10   17 ar
    30   10   11 ar
    31   11   12 ar
    32   11   38 1
    33   12   13 1
    34   12   14 ar
    35   13   39 1
    36   14   15 ar
    37   14   40 1
    38   15   16 1
    39   15   17 ar
    40   16   41 1
    41   17   18 1
    42   18   19 2
    43   18   20 1
