#       Name:                NONAME
#       Creating user name   AKK
#       Creation time:       Wed Mar 06 11:53:17 2019
#       File generated by GOLD software.
#
@<TRIPOS>MOLECULE
NONAME|benzotriazole|mol2|1|dock1
57 62 1
SMALL
USER_CHARGES


@<TRIPOS>ATOM
      1 C1         -6.8886    4.1788   47.9933 C.ar      1 ****    0.1770
      2 C2         -7.2039    3.0753   47.2027 C.ar      1 ****   -0.1500
      3 H1         -6.5597    2.8006   46.4075 H         1 ****    0.1500
      4 C3         -8.3582    2.3402   47.4580 C.ar      1 ****   -0.1500
      5 H2         -8.5676    1.5072   46.8360 H         1 ****    0.1500
      6 C4         -9.2260    2.6878   48.5054 C.ar      1 ****   -0.1435
      7 C5         -8.8760    3.8010   49.2918 C.ar      1 ****    0.1170
      8 C6         -7.7216    4.5438   49.0442 C.ar      1 ****   -0.1500
      9 H3         -7.4596    5.3676   49.6551 H         1 ****    0.1500
     10 C7        -10.5398    1.9198   48.7842 C.3       1 ****    0.4326
     11 H4        -11.3775    2.5973   48.6785 H         1 ****    0.0800
     12 C8        -10.5639    1.2441   50.2075 C.3       1 ****    0.0635
     13 H5        -11.5777    1.2817   50.6090 H         1 ****    0.0800
     14 C9         -9.5598    1.8225   51.2252 C.3       1 ****   -0.0990
     15 H6         -8.5440    1.7495   50.8632 H         1 ****    0.0800
     16 H7         -9.6954    1.3255   52.1749 H         1 ****    0.0800
     17 C10        -9.9967    3.2598   51.3793 C.2       1 ****    0.5690
     18 N11        -9.6792    4.1743   50.3983 N.am      1 ****   -0.4771
     19 N12       -10.6395    0.7849   47.8268 N.3       1 ****   -0.8691
     20 H8        -10.0952    0.9334   46.9644 H         1 ****    0.4000
     21 C13       -10.3431   -0.3792   48.5106 C.ar      1 ****    0.1000
     22 C14       -10.2284   -0.1788   49.8691 C.ar      1 ****   -0.1435
     23 C15       -10.1742   -1.6340   47.9354 C.ar      1 ****   -0.1500
     24 H9        -10.2735   -1.7584   46.8888 H         1 ****    0.1500
     25 C16        -9.8570   -2.7063   48.7662 C.ar      1 ****   -0.1500
     26 H10        -9.7140   -3.6710   48.3523 H         1 ****    0.1500
     27 C17        -9.7242   -2.5164   50.1468 C.ar      1 ****    0.1110
     28 C18        -9.9179   -1.2482   50.7023 C.ar      1 ****   -0.1500
     29 H11        -9.8387   -1.1121   51.7496 H         1 ****    0.1500
     30 O19       -10.6937    3.6203   52.3044 O.2       1 ****   -0.5700
     31 BR20       -9.2943   -3.9790   51.2644 Br        1 ****   -0.1110
     32 CL21       -5.4537    5.0922   47.6686 Cl        1 ****   -0.1770
     33 C22       -10.1681    5.5767   50.5197 C.3       1 ****    0.2011
     34 H12        -9.3456    6.2427   50.2966 H         1 ****    0.0800
     35 H13       -10.5579    5.7428   51.5148 H         1 ****    0.0800
     36 C23       -11.3173    5.7786   49.5339 C.2       1 ****    0.5180
     37 N24       -11.2490    6.9014   48.6701 N.am      1 ****    0.5606
     38 O25       -12.2892    5.0385   49.4983 O.2       1 ****   -0.5700
     39 N26       -10.4359    7.9858   48.9097 N.2       1 ****   -0.4180
     40 N27       -10.6200    8.8693   47.9805 N.2       1 ****   -0.2272
     41 C28       -11.5649    8.3706   47.1147 C.ar      1 ****    0.2272
     42 C29       -11.9798    7.1328   47.5310 C.ar      1 ****   -0.1516
     43 C30       -12.1159    8.9262   45.9514 C.ar      1 ****   -0.1500
     44 H14       -11.7992    9.8819   45.6233 H         1 ****    0.1500
     45 C31       -13.0724    8.2067   45.2465 C.ar      1 ****   -0.1500
     46 H15       -13.4981    8.6138   44.3646 H         1 ****    0.1500
     47 C32       -13.4860    6.9318   45.6926 C.ar      1 ****   -0.1500
     48 H16       -14.2171    6.3965   45.1411 H         1 ****    0.1500
     49 C33       -12.9427    6.3790   46.8418 C.ar      1 ****   -0.1500
     50 H17       -13.2457    5.4211   47.1845 H         1 ****    0.1500
     51 ****      -11.5741    0.7104   47.4790 LP        1 ****    0.0000
     52 ****      -10.9947    2.9585   52.9911 LP        1 ****    0.0000
     53 ****      -10.9674    4.5791   52.3803 LP        1 ****    0.0000
     54 ****      -12.3530    4.2661   50.1303 LP        1 ****    0.0000
     55 ****      -13.0207    5.2053   48.8372 LP        1 ****    0.0000
     56 ****       -9.8036    8.0771   49.6790 LP        1 ****    0.0000
     57 ****      -10.1587    9.7534   47.9062 LP        1 ****    0.0000
@<TRIPOS>BOND
     1    1    2 ar
     2    1    8 ar
     3    1   32 1
     4    2    3 1
     5    2    4 ar
     6    4    5 1
     7    4    6 ar
     8    6    7 ar
     9    6   10 1
    10    7    8 ar
    11    7   18 1
    12    8    9 1
    13   10   11 1
    14   10   12 1
    15   10   19 1
    16   12   13 1
    17   12   14 1
    18   12   22 1
    19   14   15 1
    20   14   16 1
    21   14   17 1
    22   17   18 am
    23   17   30 2
    24   18   33 1
    25   19   20 1
    26   19   21 1
    27   21   22 ar
    28   21   23 ar
    29   22   28 ar
    30   23   24 1
    31   23   25 ar
    32   25   26 1
    33   25   27 ar
    34   27   28 ar
    35   27   31 1
    36   28   29 1
    37   33   34 1
    38   33   35 1
    39   33   36 1
    40   36   37 am
    41   36   38 2
    42   37   39 1
    43   37   42 1
    44   39   40 2
    45   40   41 1
    46   41   42 ar
    47   41   43 ar
    48   42   49 ar
    49   43   44 1
    50   43   45 ar
    51   45   46 1
    52   45   47 ar
    53   47   48 1
    54   47   49 ar
    55   49   50 1
    56   19   51 1
    57   30   52 1
    58   30   53 1
    59   38   54 1
    60   38   55 1
    61   39   56 1
    62   40   57 1
@<TRIPOS>SUBSTRUCTURE
     1 ****     1 RESIDUE           4 A     ****     0 ROOT
