@<TRIPOS>MOLECULE
Kenpaullon-(methylamino)ethylacetamid.mol|Kenpaullon-(methylamino)ethylacetamid|mol2|1|dock4
    50    53     1
SMALL
USER_CHARGES


@<TRIPOS>ATOM
      1 C1         -12.0595   8.4875  46.7922 C.ar           1 <1>                0.0530
      2 C2         -10.7650   8.3035  47.3281 C.ar           1 <1>                0.1170
      3 C3         -13.2474   7.8059  47.3277 C.2            1 <1>               -0.2046
      4 C4         -13.4181   6.6753  48.0969 C.2            1 <1>               -0.1810
      5 C5         -12.3807   5.7149  48.6607 C.3            1 <1>                0.0820
      6 H1         -12.6152   4.7123  48.3337 H              1 <1>                0.0800
      7 H2         -12.3702   5.8204  49.7351 H              1 <1>                0.0800
      8 C6          -9.6671   9.0334  46.8693 C.ar           1 <1>               -0.1500
      9 H3          -8.7122   8.8873  47.2973 H              1 <1>                0.1500
     10 C7          -9.8326   9.9414  45.8329 C.ar           1 <1>               -0.1500
     11 H4          -9.0058  10.4991  45.4717 H              1 <1>                0.1500
     12 C8         -11.0880  10.1131  45.2565 C.ar           1 <1>               -0.1500
     13 H5         -11.2089  10.7957  44.4538 H              1 <1>                0.1500
     14 C9         -12.1828   9.3935  45.7261 C.ar           1 <1>               -0.1500
     15 H6         -13.1209   9.5381  45.2590 H              1 <1>                0.1500
     16 C10        -10.1524   7.8076  49.6927 C.3            1 <1>                0.2011
     17 H7          -9.2199   8.3468  49.6194 H              1 <1>                0.0800
     18 H8         -10.9507   8.4108  50.1046 H              1 <1>                0.0800
     19 C11         -9.9280   6.6177  50.6311 C.2            1 <1>                0.5690
     20 N12        -10.7080   6.3318  51.6783 N.am           1 <1>               -0.7301
     21 H9         -11.5855   6.8331  51.6294 H              1 <1>                0.3700
     22 O13         -8.9621   5.8872  50.4927 O.2            1 <1>               -0.5700
     23 N14        -11.6125   3.0766  53.4168 N.4            1 <1>               -0.9060
     24 H142       -12.1637   2.2901  53.0849 H              1 <1>                0.4500
     25 H141       -10.6510   2.7590  53.4906 H              1 <1>                0.4500
     26 C15        -10.5860   5.2290  52.6328 C.3            1 <1>                0.1401
     27 H11         -9.6154   4.7492  52.4874 H              1 <1>                0.0800
     28 H12        -10.6266   5.5873  53.6609 H              1 <1>                0.0800
     29 C16        -11.7020   4.1928  52.4348 C.3            1 <1>                0.3430
     30 H13        -11.6249   3.8024  51.4166 H              1 <1>                0.0800
     31 H14        -12.6630   4.7050  52.5271 H              1 <1>                0.0800
     32 C17        -12.1039   3.4957  54.7580 C.3            1 <1>                0.2630
     33 H15        -11.5063   4.3252  55.1461 H              1 <1>                0.0800
     34 H16        -12.0379   2.6648  55.4664 H              1 <1>                0.0800
     35 H17        -13.1479   3.8169  54.7032 H              1 <1>                0.0800
     36 N18        -14.5137   8.3299  47.0948 N.pl3          1 <1>                0.0332
     37 H18        -14.7122   9.1908  46.5634 H              1 <1>                0.2700
     38 C19        -15.4663   7.5447  47.7017 C.ar           1 <1>               -0.1516
     39 C20        -14.7993   6.5069  48.3342 C.ar           1 <1>                0.0000
     40 C21        -16.8597   7.6877  47.7323 C.ar           1 <1>               -0.1500
     41 H19        -17.3377   8.4933  47.2366 H              1 <1>                0.1500
     42 C22        -17.5877   6.7407  48.4319 C.ar           1 <1>               -0.1500
     43 H20        -18.6436   6.8116  48.4800 H              1 <1>                0.1500
     44 C23        -16.9326   5.6718  49.0887 C.ar           1 <1>                0.1110
     45 C24        -15.5521   5.5519  49.0438 C.ar           1 <1>               -0.1500
     46 H21        -15.0664   4.7517  49.5370 H              1 <1>                0.1500
     47 BR25       -17.9591   4.3980  50.0360 Br             1 <1>               -0.1110
     48 N26        -10.5488   7.3510  48.3382 N.am           1 <1>               -0.4771
     49 C27        -11.0241   6.0873  48.1122 C.2            1 <1>                0.5690
     50 O28        -10.3215   5.3326  47.4635 O.2            1 <1>               -0.5700
@<TRIPOS>BOND
    1    1    2 ar    
    2    1    3 1     
    3    1   14 ar    
    4    2    8 ar    
    5    2   48 1     
    6    3    4 2     
    7    3   36 1     
    8    4    5 1     
    9    4   39 1     
   10    5    6 1     
   11    5    7 1     
   12    5   49 1     
   13    8    9 1     
   14    8   10 ar    
   15   10   11 1     
   16   10   12 ar    
   17   12   13 1     
   18   12   14 ar    
   19   14   15 1     
   20   16   17 1     
   21   16   18 1     
   22   16   19 1     
   23   16   48 1     
   24   19   20 am    
   25   19   22 2     
   26   20   21 1     
   27   20   26 1     
   28   23   24 1     
   29   23   25 1     
   30   23   29 1     
   31   23   32 1     
   32   26   27 1     
   33   26   28 1     
   34   26   29 1     
   35   29   30 1     
   36   29   31 1     
   37   32   33 1     
   38   32   34 1     
   39   32   35 1     
   40   36   37 1     
   41   36   38 1     
   42   38   39 ar    
   43   38   40 ar    
   44   39   45 ar    
   45   40   41 1     
   46   40   42 ar    
   47   42   43 1     
   48   42   44 ar    
   49   44   45 ar    
   50   44   47 1     
   51   45   46 1     
   52   48   49 am    
   53   49   50 2     
@<TRIPOS>SUBSTRUCTURE
      1 ****          49
@<TRIPOS>SET
DONOR_HYDROGENS      STATIC     ATOMS    <user>   **** ""
4 21 24 25 37
ATOM$RED        STATIC     ATOMS    COLORGROUP SYSTEM
4 21 24 25 37
@<TRIPOS>COMMENT
> <Gold.Version>
5.2.2

@<TRIPOS>MOLECULE
Kenpaullon-(methylamino)ethylacetamid.mol|Kenpaullon-(methylamino)ethylacetamid|mol2|1|dock1
    50    53     1
SMALL
USER_CHARGES

@<TRIPOS>ATOM
      1 C1         -13.9783   6.5788  48.6988 C.ar           1 <1>                0.0530
      2 C2         -13.6861   5.6137  49.6886 C.ar           1 <1>                0.1170
      3 C3         -12.9366   7.3636  48.0195 C.2            1 <1>               -0.2046
      4 C4         -11.6313   7.6706  48.3368 C.2            1 <1>               -0.1810
      5 C5         -10.8088   7.2845  49.5579 C.3            1 <1>                0.0820
      6 H1         -10.4266   8.1818  50.0225 H              1 <1>                0.0800
      7 H2         -10.0318   6.6050  49.2417 H              1 <1>                0.0800
      8 C6         -14.6799   4.8107  50.2509 C.ar           1 <1>               -0.1500
      9 H3         -14.4325   4.0860  50.9789 H              1 <1>                0.1500
     10 C7         -16.0009   4.9816  49.8613 C.ar           1 <1>               -0.1500
     11 H4         -16.7664   4.3813  50.2840 H              1 <1>                0.1500
     12 C8         -16.3247   5.9538  48.9191 C.ar           1 <1>               -0.1500
     13 H5         -17.3369   6.0936  48.6348 H              1 <1>                0.1500
     14 C9         -15.3292   6.7429  48.3508 C.ar           1 <1>               -0.1500
     15 H6         -15.6093   7.4809  47.6464 H              1 <1>                0.1500
     16 C10        -11.6512   4.1856  49.8688 C.3            1 <1>                0.2011
     17 H7         -12.3770   3.3992  49.7254 H              1 <1>                0.0800
     18 H8         -11.0162   4.3287  49.0045 H              1 <1>                0.0800
     19 C11        -10.7593   3.7846  51.0481 C.2            1 <1>                0.5690
     20 N12        -11.1258   2.9294  52.0078 N.am           1 <1>               -0.7301
     21 H9         -11.9431   2.3995  51.7339 H              1 <1>                0.3700
     22 O13         -9.6599   4.2888  51.1988 O.2            1 <1>               -0.5700
     23 N14        -10.7498   0.3238  51.9451 N.4            1 <1>               -0.9060
     24 H142       -11.7558   0.4206  52.0506 H              1 <1>                0.4500
     25 H141       -10.4922   0.7936  51.0827 H              1 <1>                0.4500
     26 C15        -10.3591   2.4794  53.1705 C.3            1 <1>                0.1401
     27 H11         -9.4166   3.0311  53.2001 H              1 <1>                0.0800
     28 H12        -10.8905   2.6833  54.0996 H              1 <1>                0.0800
     29 C16        -10.0667   0.9735  53.0981 C.3            1 <1>                0.3430
     30 H13        -10.3992   0.5185  54.0348 H              1 <1>                0.0800
     31 H14         -8.9846   0.8396  53.0243 H              1 <1>                0.0800
     32 C17        -10.3978  -1.1196  51.8516 C.3            1 <1>                0.2630
     33 H15         -9.3207  -1.2458  51.7106 H              1 <1>                0.0800
     34 H16        -10.9110  -1.5844  51.0047 H              1 <1>                0.0800
     35 H17        -10.6921  -1.6482  52.7625 H              1 <1>                0.0800
     36 N18        -13.1988   7.9451  46.7844 N.pl3          1 <1>                0.0332
     37 H18        -14.0901   7.8743  46.2711 H              1 <1>                0.2700
     38 C19        -12.0826   8.6094  46.3312 C.ar           1 <1>               -0.1516
     39 C20        -11.0926   8.4469  47.2881 C.ar           1 <1>                0.0000
     40 C21        -11.8886   9.3330  45.1473 C.ar           1 <1>               -0.1500
     41 H19        -12.6680   9.4384  44.4370 H              1 <1>                0.1500
     42 C22        -10.6449   9.9041  44.9396 C.ar           1 <1>               -0.1500
     43 H20        -10.4561  10.4597  44.0576 H              1 <1>                0.1500
     44 C23         -9.6153   9.7525  45.8988 C.ar           1 <1>                0.1110
     45 C24         -9.8318   9.0315  47.0630 C.ar           1 <1>               -0.1500
     46 H21         -9.0589   8.9199  47.7769 H              1 <1>                0.1500
     47 BR25        -7.9287  10.5450  45.5807 Br             1 <1>               -0.1110
     48 N26        -12.3685   5.4532  50.1498 N.am           1 <1>               -0.4771
     49 C27        -11.7080   6.5841  50.5483 C.2            1 <1>                0.5690
     50 O28        -11.8964   6.9701  51.6882 O.2            1 <1>               -0.5700
@<TRIPOS>BOND
    1    1    2 ar    
    2    1    3 1     
    3    1   14 ar    
    4    2    8 ar    
    5    2   48 1     
    6    3    4 2     
    7    3   36 1     
    8    4    5 1     
    9    4   39 1     
   10    5    6 1     
   11    5    7 1     
   12    5   49 1     
   13    8    9 1     
   14    8   10 ar    
   15   10   11 1     
   16   10   12 ar    
   17   12   13 1     
   18   12   14 ar    
   19   14   15 1     
   20   16   17 1     
   21   16   18 1     
   22   16   19 1     
   23   16   48 1     
   24   19   20 am    
   25   19   22 2     
   26   20   21 1     
   27   20   26 1     
   28   23   24 1     
   29   23   25 1     
   30   23   29 1     
   31   23   32 1     
   32   26   27 1     
   33   26   28 1     
   34   26   29 1     
   35   29   30 1     
   36   29   31 1     
   37   32   33 1     
   38   32   34 1     
   39   32   35 1     
   40   36   37 1     
   41   36   38 1     
   42   38   39 ar    
   43   38   40 ar    
   44   39   45 ar    
   45   40   41 1     
   46   40   42 ar    
   47   42   43 1     
   48   42   44 ar    
   49   44   45 ar    
   50   44   47 1     
   51   45   46 1     
   52   48   49 am    
   53   49   50 2     
@<TRIPOS>SUBSTRUCTURE
      1 ****          49
@<TRIPOS>SET
DONOR_HYDROGENS      STATIC     ATOMS    <user>   **** ""
4 21 24 25 37
ATOM$RED        STATIC     ATOMS    COLORGROUP SYSTEM
4 21 24 25 37
@<TRIPOS>COMMENT
> <Gold.Version>
5.2.2