########## Number      : 1
########## Source num  : 9627
########## Name        : MFCD00070103
########## Description : 8-(6-AMINOHEXYL)AMINO-ADENOSINE_5'-MONOPHOS-PHATE_LITHIUM_SALT
########## Reflect     : 0
########## Energy score                             :     -36.16
##########   van der Waals component                      -10.28
##########   electrostatic component                      -25.88
########## RMSD from input orientation (A)          :      47.32

@<TRIPOS>MOLECULE
MFCD00070103
58    60    1     0     0    
SMALL
GASTEIGER
****
8-(6-AMINOHEXYL)AMINO-ADENOSINE_5'-MONOPHOS-PHATE_LITHIUM_SALT
@<TRIPOS>ATOM
1     N1      20.3707   20.1065   25.3054 N.pl3   1  <1>  -0.2114
2     C2      21.0706   20.2597   26.4884 C.ar    1  <1>   0.1599
3     C3      20.3153   18.8957   24.4738 C.3     1  <1>   0.1805
4     C4      19.7327   21.3072   25.0522 C.2     1  <1>   0.1829
5     C5      20.8353   21.5680   26.9277 C.ar    1  <1>   0.1218
6     N6      21.8561   19.4498   27.2115 N.ar    1  <1>  -0.2461
7     O7      19.8242   17.7980   25.2477 O.3     1  <1>  -0.3418
8     C8      21.7386   18.4862   24.0521 C.3     1  <1>   0.1327
9     N9      20.0283   22.1639   26.0394 N.2     1  <1>  -0.2685
10    N10     18.9064   21.5845   23.9376 N.pl3   1  <1>  -0.3117
11    C11     21.4408   21.9774   28.1217 C.ar    1  <1>   0.1407
12    C12     22.4200   19.8750   28.3503 C.ar    1  <1>   0.0831
13    C13     20.2726   16.5793   24.6486 C.3     1  <1>   0.1136
14    C14     21.5895   16.9572   23.9453 C.3     1  <1>   0.1140
15    O15     22.1006   19.0662   22.7961 O.3     1  <1>  -0.3842
16    C16     17.5142   21.2428   24.2628 C.3     1  <1>   0.0206
17    N17     22.2162   21.1206   28.8002 N.ar    1  <1>  -0.2485
18    N18     21.2372   23.2776   28.6050 N.pl3   1  <1>  -0.3229
19    C19     20.4827   15.4813   25.6901 C.3     1  <1>   0.0809
20    O20     21.5055   16.5902   22.5658 O.3     1  <1>  -0.3864
21    C21     16.6217   21.5423   23.0591 C.3     1  <1>  -0.0343
22    O22     19.2409   15.1959   26.3392 O.3     1  <1>  -0.3519
23    C23     15.1746   21.1871   23.3971 C.3     1  <1>  -0.0512
24    P24     19.3895   14.0718   27.4251 P.3     1  <1>   0.0602
25    C25     14.2822   21.4866   22.1934 C.3     1  <1>  -0.0482
26    O26     17.9959   13.8066   28.0979 O.co2   1  <1>  -0.6336
27    O27     19.8695   12.8365   26.7889 O.co2   1  <1>  -0.6336
28    O28     20.3927   14.5203   28.4896 O.co2   1  <1>  -0.6336
29    C29     12.8349   21.1314   22.5314 C.3     1  <1>  -0.0126
30    C30     11.9426   21.4308   21.3278 C.3     1  <1>  -0.0354
31    N31     10.5503   21.0891   21.6529 N.4     1  <1>   0.2185
32    H32     19.6910   19.0693   23.5850 H       1  <1>   0.0921
33    H33     22.4888   18.7746   24.8031 H       1  <1>   0.0670
34    H34     19.2303   21.9666   23.0376 H       1  <1>   0.1689
35    H35     23.0513   19.2002   28.9169 H       1  <1>   0.1141
36    H36     19.5468   16.2296   23.8997 H       1  <1>   0.0647
37    H37     22.4327   16.4445   24.4312 H       1  <1>   0.0648
38    H38     22.1828   20.0067   22.9020 H       1  <1>   0.2101
39    H39     17.4394   20.1722   24.5038 H       1  <1>   0.0501
40    H40     17.1724   21.8445   25.1179 H       1  <1>   0.0501
41    H41     21.6838   23.5762   29.4838 H       1  <1>   0.1748
42    H42     20.6408   23.9341   28.0814 H       1  <1>   0.1748
43    H43     20.8464   14.5665   25.1995 H       1  <1>   0.0590
44    H44     21.2098   15.8168   26.4443 H       1  <1>   0.0590
45    H45     22.3185   16.8239   22.1335 H       1  <1>   0.2100
46    H46     16.6769   22.6125   22.8109 H       1  <1>   0.0283
47    H47     16.9440   20.9403   22.1968 H       1  <1>   0.0283
48    H48     15.0998   20.1164   23.6380 H       1  <1>   0.0266
49    H49     14.8327   21.7887   24.2521 H       1  <1>   0.0266
50    H50     14.3374   22.5568   21.9452 H       1  <1>   0.0267
51    H51     14.6044   20.8844   21.3311 H       1  <1>   0.0267
52    H52     12.7602   20.0607   22.7724 H       1  <1>   0.0317
53    H53     12.4931   21.7331   23.3865 H       1  <1>   0.0317
54    H54     11.9979   22.5010   21.0796 H       1  <1>   0.0813
55    H55     12.2649   20.8286   20.4656 H       1  <1>   0.0813
56    H56      9.9684   21.2893   20.8546 H       1  <1>   0.1994
57    H57     10.4796   20.1081   21.8729 H       1  <1>   0.1994
58    H58     10.2348   21.6404   22.4355 H       1  <1>   0.1994
@<TRIPOS>BOND
1     1     2     1
2     1     3     1
3     1     4     1
4     2     5     ar
5     2     6     ar
6     3     7     1
7     3     8     1
8     4     9     2
9     4     10    1
10    5     11    ar
11    6     12    ar
12    7     13    1
13    8     14    1
14    8     15    1
15    10    16    1
16    11    17    ar
17    11    18    1
18    13    19    1
19    14    20    1
20    16    21    1
21    19    22    1
22    21    23    1
23    22    24    1
24    23    25    1
25    24    26    1
26    24    27    1
27    24    28    1
28    25    29    1
29    29    30    1
30    30    31    1
31    5     9     1
32    12    17    ar
33    13    14    1
34    3     32    1
35    8     33    1
36    10    34    1
37    12    35    1
38    13    36    1
39    14    37    1
40    15    38    1
41    16    39    1
42    16    40    1
43    18    41    1
44    18    42    1
45    19    43    1
46    19    44    1
47    20    45    1
48    21    46    1
49    21    47    1
50    23    48    1
51    23    49    1
52    25    50    1
53    25    51    1
54    29    52    1
55    29    53    1
56    30    54    1
57    30    55    1
58    31    56    1
59    31    57    1
60    31    58    1
@<TRIPOS>SUBSTRUCTURE
1   ****   1     TEMP       0   ****  **** 


########## Number      : 2
########## Source num  : 5286
########## Name        : MFCD00037486
########## Description : CYTIDINE-5'-DIPHOSPHOCHOLINE,_SODIUM_SALT
########## Reflect     : 0
########## Energy score                             :     -33.94
##########   van der Waals component                      -18.87
##########   electrostatic component                      -15.07
########## RMSD from input orientation (A)          :      36.81

@<TRIPOS>MOLECULE
MFCD00037486
56    57    1     0     0    
SMALL
GASTEIGER
****
CYTIDINE-5'-DIPHOSPHOCHOLINE,_SODIUM_SALT
@<TRIPOS>ATOM
1     C1      17.6030   19.1821   24.8216 C.3     1  <1>   0.1833
2     N2      16.2611   19.7603   24.6607 N.am    1  <1>  -0.2072
3     O3      17.5198   17.7545   24.8161 O.3     1  <1>  -0.3413
4     C4      18.1663   19.5473   26.2075 C.3     1  <1>   0.1333
5     C5      15.2551   19.4497   25.5574 C.2     1  <1>   0.3191
6     C6      15.9929   20.6201   23.6112 C.2     1  <1>   0.0224
7     C7      18.6638   17.2271   25.4929 C.3     1  <1>   0.1137
8     C8      19.0568   18.3250   26.4988 C.3     1  <1>   0.1140
9     O9      18.9320   20.7541   26.1607 O.3     1  <1>  -0.3842
10    N10     14.0291   19.9723   25.4182 N.2     1  <1>  -0.2135
11    O11     15.4882   18.6855   26.4926 O.2     1  <1>  -0.2968
12    C12     14.7079   21.1594   23.4769 C.2     1  <1>  -0.0153
13    C13     18.3472   15.9063   26.1930 C.3     1  <1>   0.0843
14    O14     20.4255   18.6827   26.2902 O.3     1  <1>  -0.3864
15    C15     13.7296   20.8088   24.4151 C.2     1  <1>   0.1048
16    O16     17.9516   14.9346   25.2213 O.3     1  <1>  -0.3179
17    N17     12.4344   21.3340   24.3049 N.pl3   1  <1>  -0.3346
18    P18     17.6115   13.5501   25.8787 P.3     1  <1>   0.2704
19    O19     17.1861   12.5312   24.7625 O.3     1  <1>  -0.2565
20    O20     18.7954   13.0384   26.5838 O.co2   1  <1>  -0.5103
21    O21     16.4621   13.7264   26.8732 O.co2   1  <1>  -0.5103
22    P22     16.8316   11.1220   25.3568 P.3     1  <1>   0.2705
23    O23     16.4159   10.1529   24.1936 O.3     1  <1>  -0.3152
24    O24     15.7162   11.2564   26.3049 O.co2   1  <1>  -0.5103
25    O25     18.0523   10.5530   26.0829 O.co2   1  <1>  -0.5103
26    C26     16.0806    8.8493   24.6764 C.3     1  <1>   0.0954
27    C27     15.6863    7.9566   23.5007 C.3     1  <1>  -0.0064
28    N28     15.3358    6.5937   24.0054 N.4     1  <1>   0.2385
29    C29     14.9499    5.7203   22.8550 C.3     1  <1>  -0.0417
30    C30     14.1900    6.6953   24.9602 C.3     1  <1>  -0.0417
31    C31     16.5171    6.0027   24.7056 C.3     1  <1>  -0.0417
32    H32     18.2748   19.5465   24.0305 H       1  <1>   0.0928
33    H33     17.3699   19.6637   26.9572 H       1  <1>   0.0670
34    H34     16.7736   20.8752   22.8961 H       1  <1>   0.0743
35    H35     19.4903   17.0690   24.7845 H       1  <1>   0.0647
36    H36     18.9040   17.9624   27.5259 H       1  <1>   0.0648
37    H37     18.3501   21.4828   25.9796 H       1  <1>   0.2101
38    H38     14.4737   21.8385   22.6584 H       1  <1>   0.0613
39    H39     19.2406   15.5398   26.7197 H       1  <1>   0.0591
40    H40     17.5235   16.0509   26.9075 H       1  <1>   0.0591
41    H41     20.6663   19.3599   26.9113 H       1  <1>   0.2100
42    H42     12.2033   21.9771   23.5342 H       1  <1>   0.1688
43    H43     11.7140   21.0767   24.9946 H       1  <1>   0.1688
44    H44     16.9490    8.4052   25.1849 H       1  <1>   0.0618
45    H45     15.2319    8.9163   25.3728 H       1  <1>   0.0618
46    H46     14.8117    8.3817   22.9865 H       1  <1>   0.0838
47    H47     16.5288    7.8705   22.7987 H       1  <1>   0.0838
48    H48     14.6938    4.7203   23.2348 H       1  <1>   0.0778
49    H49     14.0746    6.1430   22.3403 H       1  <1>   0.0778
50    H50     15.7916    5.6318   22.1523 H       1  <1>   0.0778
51    H51     14.4821    7.3391   25.8029 H       1  <1>   0.0778
52    H52     13.3193    7.1392   24.4554 H       1  <1>   0.0778
53    H53     13.9323    5.6974   25.3444 H       1  <1>   0.0778
54    H54     17.3551    5.9315   23.9964 H       1  <1>   0.0778
55    H55     16.8141    6.6450   25.5476 H       1  <1>   0.0778
56    H56     16.2709    4.9949   25.0712 H       1  <1>   0.0778
@<TRIPOS>BOND
1     1     2     1
2     1     3     1
3     1     4     1
4     2     5     1
5     2     6     1
6     3     7     1
7     4     8     1
8     4     9     1
9     5     10    1
10    5     11    2
11    6     12    2
12    7     13    1
13    8     14    1
14    10    15    2
15    13    16    1
16    15    17    1
17    16    18    1
18    18    19    1
19    18    20    1
20    18    21    1
21    19    22    1
22    22    23    1
23    22    24    1
24    22    25    1
25    23    26    1
26    26    27    1
27    27    28    1
28    28    29    1
29    28    30    1
30    28    31    1
31    7     8     1
32    12    15    1
33    1     32    1
34    4     33    1
35    6     34    1
36    7     35    1
37    8     36    1
38    9     37    1
39    12    38    1
40    13    39    1
41    13    40    1
42    14    41    1
43    17    42    1
44    17    43    1
45    26    44    1
46    26    45    1
47    27    46    1
48    27    47    1
49    29    48    1
50    29    49    1
51    29    50    1
52    30    51    1
53    30    52    1
54    30    53    1
55    31    54    1
56    31    55    1
57    31    56    1
@<TRIPOS>SUBSTRUCTURE
1   ****   1     TEMP       0   ****  **** 


########## Number      : 3
########## Source num  : 5548
########## Name        : MFCD00038590
########## Description : L-THR-LYS-TYR
########## Reflect     : 0
########## Energy score                             :     -33.89
##########   van der Waals component                      -15.40
##########   electrostatic component                      -18.49
########## RMSD from input orientation (A)          :      35.01

@<TRIPOS>MOLECULE
MFCD00038590
60    60    1     0     0    
SMALL
GASTEIGER
****
L-THR-LYS-TYR
@<TRIPOS>ATOM
1     C1      15.5863   17.5910   22.0385 C.3     1  <1>   0.1150
2     C2      16.1737   16.6958   23.1032 C.2     1  <1>   0.2186
3     N3      15.0134   16.7654   20.9655 N.am    1  <1>  -0.2821
4     C4      14.4902   18.4609   22.6522 C.3     1  <1>  -0.0204
5     N5      16.7501   17.2291   24.1767 N.am    1  <1>  -0.2902
6     O6      16.1191   15.4734   22.9778 O.2     1  <1>  -0.3360
7     C7      15.4728   16.8781   19.7225 C.2     1  <1>   0.2448
8     C8      13.8958   19.3668   21.5747 C.3     1  <1>  -0.0456
9     C9      17.3219   16.3576   25.2132 C.3     1  <1>   0.0779
10    C10     14.8843   16.0300   18.6203 C.3     1  <1>   0.0802
11    O11     16.3769   17.6731   19.4706 O.2     1  <1>  -0.3322
12    C12     12.7997   20.2367   22.1884 C.3     1  <1>  -0.0126
13    C13     18.8153   16.6478   25.3556 C.3     1  <1>   0.0012
14    C14     16.6303   16.6205   26.5295 C.2     1  <1>   0.0684
15    C15     15.5844   16.3520   17.3009 C.3     1  <1>   0.1046
16    N16     13.4478   16.3166   18.4954 N.4     1  <1>   0.2302
17    C17     12.2054   21.1426   21.1110 C.3     1  <1>  -0.0354
18    C18     19.4009   15.7587   26.4264 C.ar    1  <1>  -0.0379
19    O19     16.1559   15.6212   27.2312 O.co2   1  <1>  -0.5441
20    O20     16.5134   17.7635   26.9396 O.co2   1  <1>  -0.5441
21    C21     14.9898   15.4950   16.1871 C.3     1  <1>  -0.0330
22    O22     15.3997   17.7352   16.9884 O.3     1  <1>  -0.3858
23    N23     11.1509   21.9795   21.7014 N.4     1  <1>   0.2185
24    C24     19.7131   14.4253   26.1357 C.ar    1  <1>  -0.0494
25    C25     19.6317   16.2678   27.7100 C.ar    1  <1>  -0.0494
26    C26     20.2562   13.6010   27.1286 C.ar    1  <1>  -0.0282
27    C27     20.1746   15.4435   28.7028 C.ar    1  <1>  -0.0282
28    C28     20.4868   14.1101   28.4121 C.ar    1  <1>   0.0649
29    O29     21.0182   13.3035   29.3836 O.3     1  <1>  -0.3750
30    H30     16.3688   18.2462   21.6282 H       1  <1>   0.0664
31    H31     14.2783   16.1192   21.1702 H       1  <1>   0.1798
32    H32     13.6926   17.8231   23.0607 H       1  <1>   0.0293
33    H33     14.9146   19.0879   23.4501 H       1  <1>   0.0293
34    H34     16.7944   18.2229   24.2787 H       1  <1>   0.1793
35    H35     14.6792   20.0195   21.1622 H       1  <1>   0.0268
36    H36     13.4573   18.7546   20.7729 H       1  <1>   0.0268
37    H37     17.1708   15.3030   24.9395 H       1  <1>   0.0599
38    H38     15.0120   14.9642   18.8605 H       1  <1>   0.0992
39    H39     12.0022   19.5987   22.5969 H       1  <1>   0.0317
40    H40     13.2241   20.8637   22.9863 H       1  <1>   0.0317
41    H41     19.3274   16.4434   24.4038 H       1  <1>   0.0343
42    H42     18.9652   17.6986   25.6441 H       1  <1>   0.0343
43    H43     16.6622   16.1515   17.3915 H       1  <1>   0.0654
44    H44     12.9931   16.1019   19.3691 H       1  <1>   0.2004
45    H45     13.3091   17.2924   18.2845 H       1  <1>   0.2004
46    H46     13.0457   15.7471   17.7675 H       1  <1>   0.2004
47    H47     12.9889   21.7953   20.6987 H       1  <1>   0.0813
48    H48     11.7668   20.5305   20.3092 H       1  <1>   0.0813
49    H49     15.4990   15.7329   15.2415 H       1  <1>   0.0257
50    H50     15.1369   14.4291   16.4149 H       1  <1>   0.0257
51    H51     13.9165   15.7110   16.0802 H       1  <1>   0.0257
52    H52     15.7720   18.2622   17.6856 H       1  <1>   0.2101
53    H53     10.7640   22.5737   20.9851 H       1  <1>   0.1994
54    H54     10.4185   21.3966   22.0752 H       1  <1>   0.1994
55    H55     11.5383   22.5557   22.4321 H       1  <1>   0.1994
56    H56     19.5344   14.0311   25.1418 H       1  <1>   0.0659
57    H57     19.3900   17.3003   27.9352 H       1  <1>   0.0659
58    H58     20.4979   12.5685   26.9035 H       1  <1>   0.0678
59    H59     20.3533   15.8377   29.6967 H       1  <1>   0.0678
60    H60     21.1683   12.4388   29.0198 H       1  <1>   0.1944
@<TRIPOS>BOND
1     1     2     1
2     1     3     1
3     1     4     1
4     2     5     1
5     2     6     2
6     3     7     1
7     4     8     1
8     5     9     1
9     7     10    1
10    7     11    2
11    8     12    1
12    9     13    1
13    9     14    1
14    10    15    1
15    10    16    1
16    12    17    1
17    13    18    1
18    14    19    1
19    14    20    1
20    15    21    1
21    15    22    1
22    17    23    1
23    18    24    ar
24    18    25    ar
25    24    26    ar
26    25    27    ar
27    26    28    ar
28    28    29    1
29    27    28    ar
30    1     30    1
31    3     31    1
32    4     32    1
33    4     33    1
34    5     34    1
35    8     35    1
36    8     36    1
37    9     37    1
38    10    38    1
39    12    39    1
40    12    40    1
41    13    41    1
42    13    42    1
43    15    43    1
44    16    44    1
45    16    45    1
46    16    46    1
47    17    47    1
48    17    48    1
49    21    49    1
50    21    50    1
51    21    51    1
52    22    52    1
53    23    53    1
54    23    54    1
55    23    55    1
56    24    56    1
57    25    57    1
58    26    58    1
59    27    59    1
60    29    60    1
@<TRIPOS>SUBSTRUCTURE
1   ****   1     TEMP       0   ****  **** 


########## Number      : 4
########## Source num  : 8610
########## Name        : MFCD00064023
########## Description : CYTIDINE_5'-DIPHOSPHOCHOLINE
########## Reflect     : 0
########## Energy score                             :     -33.78
##########   van der Waals component                      -18.84
##########   electrostatic component                      -14.94
########## RMSD from input orientation (A)          :      33.67

@<TRIPOS>MOLECULE
MFCD00064023
56    57    1     0     0    
SMALL
GASTEIGER
****
CYTIDINE_5'-DIPHOSPHOCHOLINE
@<TRIPOS>ATOM
1     C1      17.6030   19.1820   24.8215 C.3     1  <1>   0.1833
2     N2      16.2611   19.7603   24.6607 N.am    1  <1>  -0.2072
3     O3      17.5198   17.7545   24.8161 O.3     1  <1>  -0.3413
4     C4      18.1663   19.5473   26.2075 C.3     1  <1>   0.1333
5     C5      15.2551   19.4497   25.5574 C.2     1  <1>   0.3191
6     C6      15.9929   20.6201   23.6112 C.2     1  <1>   0.0224
7     C7      18.6638   17.2271   25.4929 C.3     1  <1>   0.1137
8     C8      19.0568   18.3250   26.4988 C.3     1  <1>   0.1140
9     O9      18.9320   20.7541   26.1607 O.3     1  <1>  -0.3842
10    N10     14.0291   19.9723   25.4182 N.2     1  <1>  -0.2135
11    O11     15.4882   18.6855   26.4926 O.2     1  <1>  -0.2968
12    C12     14.7079   21.1594   23.4769 C.2     1  <1>  -0.0153
13    C13     18.3472   15.9063   26.1930 C.3     1  <1>   0.0843
14    O14     20.4255   18.6826   26.2901 O.3     1  <1>  -0.3864
15    C15     13.7296   20.8088   24.4151 C.2     1  <1>   0.1048
16    O16     17.9516   14.9346   25.2213 O.3     1  <1>  -0.3179
17    N17     12.4344   21.3340   24.3049 N.pl3   1  <1>  -0.3346
18    P18     17.6115   13.5501   25.8787 P.3     1  <1>   0.2704
19    O19     17.1861   12.5312   24.7625 O.3     1  <1>  -0.2565
20    O20     18.8760   13.0036   26.6317 O.co2   1  <1>  -0.5103
21    O21     16.5072   13.7194   26.8342 O.co2   1  <1>  -0.5103
22    P22     16.8316   11.1220   25.3568 P.3     1  <1>   0.2705
23    O23     16.4159   10.1529   24.1936 O.3     1  <1>  -0.3152
24    O24     15.7161   11.2563   26.3048 O.co2   1  <1>  -0.5103
25    O25     18.0522   10.5529   26.0828 O.co2   1  <1>  -0.5103
26    C26     16.0806    8.8493   24.6764 C.3     1  <1>   0.0954
27    C27     15.6863    7.9566   23.5006 C.3     1  <1>  -0.0064
28    N28     15.3358    6.5937   24.0053 N.4     1  <1>   0.2385
29    C29     14.9499    5.7203   22.8550 C.3     1  <1>  -0.0417
30    C30     14.1900    6.6953   24.9602 C.3     1  <1>  -0.0417
31    C31     16.5171    6.0026   24.7055 C.3     1  <1>  -0.0417
32    H32     18.2748   19.5464   24.0304 H       1  <1>   0.0928
33    H33     17.3699   19.6637   26.9572 H       1  <1>   0.0670
34    H34     16.7736   20.8752   22.8961 H       1  <1>   0.0743
35    H35     19.4903   17.0690   24.7845 H       1  <1>   0.0647
36    H36     18.9040   17.9624   27.5259 H       1  <1>   0.0648
37    H37     18.3501   21.4828   25.9796 H       1  <1>   0.2101
38    H38     14.4738   21.8385   22.6584 H       1  <1>   0.0613
39    H39     19.2406   15.5398   26.7197 H       1  <1>   0.0591
40    H40     17.5235   16.0509   26.9075 H       1  <1>   0.0591
41    H41     20.6663   19.3598   26.9113 H       1  <1>   0.2100
42    H42     12.2033   21.9771   23.5342 H       1  <1>   0.1688
43    H43     11.7140   21.0767   24.9946 H       1  <1>   0.1688
44    H44     16.9490    8.4052   25.1849 H       1  <1>   0.0618
45    H45     15.2319    8.9163   25.3728 H       1  <1>   0.0618
46    H46     14.8117    8.3816   22.9865 H       1  <1>   0.0838
47    H47     16.5288    7.8705   22.7987 H       1  <1>   0.0838
48    H48     14.6938    4.7203   23.2348 H       1  <1>   0.0778
49    H49     14.0746    6.1430   22.3403 H       1  <1>   0.0778
50    H50     15.7916    5.6318   22.1523 H       1  <1>   0.0778
51    H51     14.4821    7.3391   25.8029 H       1  <1>   0.0778
52    H52     13.3193    7.1392   24.4554 H       1  <1>   0.0778
53    H53     13.9323    5.6974   25.3444 H       1  <1>   0.0778
54    H54     17.3550    5.9314   23.9964 H       1  <1>   0.0778
55    H55     16.8142    6.6450   25.5476 H       1  <1>   0.0778
56    H56     16.2708    4.9948   25.0712 H       1  <1>   0.0778
@<TRIPOS>BOND
1     1     2     1
2     1     3     1
3     1     4     1
4     2     5     1
5     2     6     1
6     3     7     1
7     4     8     1
8     4     9     1
9     5     10    1
10    5     11    2
11    6     12    2
12    7     13    1
13    8     14    1
14    10    15    2
15    13    16    1
16    15    17    1
17    16    18    1
18    18    19    1
19    18    20    1
20    18    21    1
21    19    22    1
22    22    23    1
23    22    24    1
24    22    25    1
25    23    26    1
26    26    27    1
27    27    28    1
28    28    29    1
29    28    30    1
30    28    31    1
31    7     8     1
32    12    15    1
33    1     32    1
34    4     33    1
35    6     34    1
36    7     35    1
37    8     36    1
38    9     37    1
39    12    38    1
40    13    39    1
41    13    40    1
42    14    41    1
43    17    42    1
44    17    43    1
45    26    44    1
46    26    45    1
47    27    46    1
48    27    47    1
49    29    48    1
50    29    49    1
51    29    50    1
52    30    51    1
53    30    52    1
54    30    53    1
55    31    54    1
56    31    55    1
57    31    56    1
@<TRIPOS>SUBSTRUCTURE
1   ****   1     TEMP       0   ****  **** 


########## Number      : 5
########## Source num  : 8909
########## Name        : MFCD00065634
########## Description : FMOC-CYS(P-ME-BZL)-OH
########## Reflect     : 0
########## Energy score                             :     -32.94
##########   van der Waals component                      -27.54
##########   electrostatic component                       -5.39
########## RMSD from input orientation (A)          :      36.00

@<TRIPOS>MOLECULE
MFCD00065634
56    59    1     0     0    
SMALL
GASTEIGER
****
FMOC-CYS(P-ME-BZL)-OH
@<TRIPOS>ATOM
1     C1      17.1419   18.3945   25.8003 C.3     1  <1>   0.0321
2     C2      15.9416   19.2750   25.5470 C.ar    1  <1>  -0.0303
3     C3      18.1247   19.2550   26.5578 C.ar    1  <1>  -0.0303
4     C4      16.7353   17.1951   26.6550 C.3     1  <1>   0.0630
5     C5      16.2060   20.5306   26.1072 C.ar    1  <1>  -0.0138
6     C6      14.7236   19.0406   24.8977 C.ar    1  <1>  -0.0573
7     C7      17.5487   20.5195   26.7294 C.ar    1  <1>  -0.0138
8     C8      19.4039   18.9940   27.0634 C.ar    1  <1>  -0.0573
9     O9      17.0467   15.9858   25.9584 O.3     1  <1>  -0.3026
10    C10     15.2524   21.5517   26.0180 C.ar    1  <1>  -0.0537
11    C11     13.7700   20.0618   24.8085 C.ar    1  <1>  -0.0614
12    C12     18.2520   21.5230   27.4065 C.ar    1  <1>  -0.0537
13    C13     20.1072   19.9975   27.7404 C.ar    1  <1>  -0.0614
14    C14     16.7651   14.8484   26.5442 C.2     1  <1>   0.3345
15    C15     14.0344   21.3172   25.3686 C.ar    1  <1>  -0.0612
16    C16     19.5312   21.2620   27.9120 C.ar    1  <1>  -0.0612
17    N17     17.0379   13.6996   25.9322 N.am    1  <1>  -0.2623
18    O18     16.2524   14.8431   27.6513 O.2     1  <1>  -0.2946
19    C19     16.7219   12.4234   26.5896 C.3     1  <1>   0.0869
20    C20     16.7410   11.2990   25.5551 C.3     1  <1>   0.0210
21    C21     17.7491   12.1404   27.6596 C.2     1  <1>   0.0694
22    S22     16.3496    9.7190   26.3691 S.3     1  <1>  -0.1536
23    O23     17.4553   11.3404   28.6544 O.co2   1  <1>  -0.5440
24    O24     18.8527   12.6568   27.5975 O.co2   1  <1>  -0.5440
25    C25     16.4052    8.4776   25.0393 C.3     1  <1>   0.0189
26    C26     16.0921    7.1148   25.6094 C.ar    1  <1>  -0.0375
27    C27     14.7678    6.6632   25.6563 C.ar    1  <1>  -0.0575
28    C28     17.1260    6.3031   26.0911 C.ar    1  <1>  -0.0575
29    C29     14.4774    5.3997   26.1849 C.ar    1  <1>  -0.0586
30    C30     16.8356    5.0397   26.6197 C.ar    1  <1>  -0.0586
31    C31     15.5113    4.5880   26.6666 C.ar    1  <1>  -0.0504
32    C32     15.1982    3.2253   27.2367 C.3     1  <1>  -0.0397
33    H33     17.5757   18.0340   24.8560 H       1  <1>   0.0418
34    H34     17.2876   17.2104   27.6061 H       1  <1>   0.0546
35    H35     15.6530   17.2253   26.8494 H       1  <1>   0.0546
36    H36     14.5189   18.0686   24.4640 H       1  <1>   0.0621
37    H37     19.8498   18.0150   26.9306 H       1  <1>   0.0621
38    H38     15.4571   22.5239   26.4516 H       1  <1>   0.0624
39    H39     12.8270   19.8802   24.3057 H       1  <1>   0.0618
40    H40     17.8061   22.5021   27.5392 H       1  <1>   0.0624
41    H41     21.0977   19.7954   28.1318 H       1  <1>   0.0618
42    H42     13.2961   22.1079   25.2996 H       1  <1>   0.0618
43    H43     20.0757   22.0389   28.4363 H       1  <1>   0.0618
44    H44     17.4582   13.7040   25.0248 H       1  <1>   0.1858
45    H45     15.7292   12.4814   27.0598 H       1  <1>   0.0610
46    H46     15.9881   11.4949   24.7774 H       1  <1>   0.0401
47    H47     17.7400   11.2274   25.1004 H       1  <1>   0.0401
48    H48     15.6582    8.7218   24.2696 H       1  <1>   0.0425
49    H49     17.4101    8.4543   24.5925 H       1  <1>   0.0425
50    H50     13.9672    7.2917   25.2833 H       1  <1>   0.0621
51    H51     18.1514    6.6529   26.0548 H       1  <1>   0.0621
52    H52     13.4520    5.0500   26.2213 H       1  <1>   0.0620
53    H53     17.6362    4.4112   26.9927 H       1  <1>   0.0620
54    H54     14.1124    3.0566   27.1855 H       1  <1>   0.0278
55    H55     15.7096    2.4471   26.6512 H       1  <1>   0.0278
56    H56     15.5190    3.1756   28.2877 H       1  <1>   0.0278
@<TRIPOS>BOND
1     1     2     1
2     1     3     1
3     1     4     1
4     2     5     ar
5     2     6     ar
6     3     7     ar
7     3     8     ar
8     4     9     1
9     5     10    ar
10    6     11    ar
11    7     12    ar
12    8     13    ar
13    9     14    1
14    10    15    ar
15    12    16    ar
16    14    17    1
17    14    18    2
18    17    19    1
19    19    20    1
20    19    21    1
21    20    22    1
22    21    23    1
23    21    24    1
24    22    25    1
25    25    26    1
26    26    27    ar
27    26    28    ar
28    27    29    ar
29    28    30    ar
30    29    31    ar
31    31    32    1
32    5     7     ar
33    11    15    ar
34    13    16    ar
35    30    31    ar
36    1     33    1
37    4     34    1
38    4     35    1
39    6     36    1
40    8     37    1
41    10    38    1
42    11    39    1
43    12    40    1
44    13    41    1
45    15    42    1
46    16    43    1
47    17    44    1
48    19    45    1
49    20    46    1
50    20    47    1
51    25    48    1
52    25    49    1
53    27    50    1
54    28    51    1
55    29    52    1
56    30    53    1
57    32    54    1
58    32    55    1
59    32    56    1
@<TRIPOS>SUBSTRUCTURE
1   ****   1     TEMP       0   ****  **** 


########## Number      : 6
########## Source num  : 8910
########## Name        : MFCD00065635
########## Description : FMOC-CYS(PMEOBZL)-OH
########## Reflect     : 0
########## Energy score                             :     -32.82
##########   van der Waals component                      -27.76
##########   electrostatic component                       -5.06
########## RMSD from input orientation (A)          :      35.44

@<TRIPOS>MOLECULE
MFCD00065635
57    60    1     0     0    
SMALL
GASTEIGER
****
FMOC-CYS(PMEOBZL)-OH
@<TRIPOS>ATOM
1     C1      17.1530   18.3640   25.7948 C.3     1  <1>   0.0321
2     C2      15.9554   19.2452   25.5319 C.ar    1  <1>  -0.0303
3     C3      18.1324   19.2256   26.5556 C.ar    1  <1>  -0.0303
4     C4      16.7398   17.1676   26.6507 C.3     1  <1>   0.0630
5     C5      16.2179   20.5020   26.0898 C.ar    1  <1>  -0.0138
6     C6      14.7409   19.0103   24.8760 C.ar    1  <1>  -0.0573
7     C7      17.5570   20.4912   26.7200 C.ar    1  <1>  -0.0138
8     C8      19.4082   18.9644   27.0695 C.ar    1  <1>  -0.0573
9     O9      17.0539   15.9558   25.9596 O.3     1  <1>  -0.3026
10    C10     15.2662   21.5240   25.9919 C.ar    1  <1>  -0.0537
11    C11     13.7892   20.0323   24.7780 C.ar    1  <1>  -0.0614
12    C12     18.2575   21.4959   27.3982 C.ar    1  <1>  -0.0537
13    C13     20.1087   19.9692   27.7477 C.ar    1  <1>  -0.0614
14    C14     16.7673   14.8206   26.5472 C.2     1  <1>   0.3345
15    C15     14.0519   21.2892   25.3360 C.ar    1  <1>  -0.0612
16    C16     19.5334   21.2348   27.9121 C.ar    1  <1>  -0.0612
17    N17     17.0424   13.6696   25.9403 N.am    1  <1>  -0.2623
18    O18     16.2482   14.8193   27.6513 O.2     1  <1>  -0.2946
19    C19     16.7208   12.3958   26.5997 C.3     1  <1>   0.0869
20    C20     16.7446   11.2682   25.5687 C.3     1  <1>   0.0211
21    C21     17.7414   12.1147   27.6766 C.2     1  <1>   0.0694
22    S22     16.3465    9.6912   26.3851 S.3     1  <1>  -0.1530
23    O23     17.4407   11.3181   28.6721 O.co2   1  <1>  -0.5440
24    O24     18.8460   12.6296   27.6194 O.co2   1  <1>  -0.5440
25    C25     16.4085    8.4457   25.0594 C.3     1  <1>   0.0211
26    C26     16.0903    7.0851   25.6318 C.ar    1  <1>  -0.0305
27    C27     14.7651    6.6351   25.6722 C.ar    1  <1>  -0.0487
28    C28     17.1203    6.2735   26.1221 C.ar    1  <1>  -0.0487
29    C29     14.4700    5.3737   26.2029 C.ar    1  <1>  -0.0279
30    C30     16.8252    5.0121   26.6528 C.ar    1  <1>  -0.0279
31    C31     15.5001    4.5621   26.6931 C.ar    1  <1>   0.0683
32    O32     15.2114    3.3277   27.2125 O.3     1  <1>  -0.3631
33    C33     16.2961    2.5345   27.7012 C.3     1  <1>   0.0315
34    H34     17.5920   18.0000   24.8541 H       1  <1>   0.0418
35    H35     17.2865   17.1851   27.6051 H       1  <1>   0.0546
36    H36     15.6564   17.1997   26.8385 H       1  <1>   0.0546
37    H37     14.5376   18.0371   24.4441 H       1  <1>   0.0621
38    H38     19.8536   17.9844   26.9424 H       1  <1>   0.0621
39    H39     15.4695   22.4972   26.4239 H       1  <1>   0.0624
40    H40     12.8489   19.8504   24.2702 H       1  <1>   0.0618
41    H41     17.8121   22.4759   27.5254 H       1  <1>   0.0624
42    H42     21.0966   19.7671   28.1455 H       1  <1>   0.0618
43    H43     13.3150   22.0805   25.2601 H       1  <1>   0.0618
44    H44     20.0759   22.0127   28.4371 H       1  <1>   0.0618
45    H45     17.4681   13.6707   25.0355 H       1  <1>   0.1858
46    H46     15.7254   12.4564   27.0638 H       1  <1>   0.0610
47    H47     15.9967   11.4627   24.7859 H       1  <1>   0.0401
48    H48     17.7463   11.1940   25.1201 H       1  <1>   0.0401
49    H49     15.6664    8.6884   24.2846 H       1  <1>   0.0430
50    H50     17.4160    8.4197   24.6188 H       1  <1>   0.0430
51    H51     13.9676    7.2636   25.2926 H       1  <1>   0.0659
52    H52     18.1463    6.6219   26.0908 H       1  <1>   0.0659
53    H53     13.4440    5.0254   26.2342 H       1  <1>   0.0678
54    H54     17.6227    4.3838   27.0325 H       1  <1>   0.0678
55    H55     15.8999    1.5812   28.0811 H       1  <1>   0.0490
56    H56     17.0065    2.3281   26.8871 H       1  <1>   0.0490
57    H57     16.8072    3.0618   28.5201 H       1  <1>   0.0490
@<TRIPOS>BOND
1     1     2     1
2     1     3     1
3     1     4     1
4     2     5     ar
5     2     6     ar
6     3     7     ar
7     3     8     ar
8     4     9     1
9     5     10    ar
10    6     11    ar
11    7     12    ar
12    8     13    ar
13    9     14    1
14    10    15    ar
15    12    16    ar
16    14    17    1
17    14    18    2
18    17    19    1
19    19    20    1
20    19    21    1
21    20    22    1
22    21    23    1
23    21    24    1
24    22    25    1
25    25    26    1
26    26    27    ar
27    26    28    ar
28    27    29    ar
29    28    30    ar
30    29    31    ar
31    31    32    1
32    32    33    1
33    5     7     ar
34    11    15    ar
35    13    16    ar
36    30    31    ar
37    1     34    1
38    4     35    1
39    4     36    1
40    6     37    1
41    8     38    1
42    10    39    1
43    11    40    1
44    12    41    1
45    13    42    1
46    15    43    1
47    16    44    1
48    17    45    1
49    19    46    1
50    20    47    1
51    20    48    1
52    25    49    1
53    25    50    1
54    27    51    1
55    28    52    1
56    29    53    1
57    30    54    1
58    33    55    1
59    33    56    1
60    33    57    1
@<TRIPOS>SUBSTRUCTURE
1   ****   1     TEMP       0   ****  **** 


########## Number      : 7
########## Source num  : 5353
########## Name        : MFCD00037874
########## Description : H-PRO-VAL-ASP-OH
########## Reflect     : 0
########## Energy score                             :     -31.83
##########   van der Waals component                      -11.99
##########   electrostatic component                      -19.83
########## RMSD from input orientation (A)          :      34.93

@<TRIPOS>MOLECULE
MFCD00037874
45    45    1     0     0    
SMALL
GASTEIGER
****
H-PRO-VAL-ASP-OH
@<TRIPOS>ATOM
1     C1      15.8834   19.8825   25.3372 C.3     1  <1>   0.1173
2     C2      15.8170   18.3996   25.6148 C.2     1  <1>   0.2189
3     N3      14.5843   20.3441   24.8273 N.am    1  <1>  -0.2819
4     C4      16.2178   20.6279   26.6284 C.3     1  <1>  -0.0143
5     N5      16.6358   17.5667   24.9788 N.am    1  <1>  -0.2904
6     O6      15.0056   17.9622   26.4292 O.2     1  <1>  -0.3360
7     C7      14.5118   20.9550   23.6481 C.2     1  <1>   0.2423
8     C8      16.2616   22.1282   26.3529 C.3     1  <1>  -0.0600
9     C9      17.5773   20.1657   27.1451 C.3     1  <1>  -0.0600
10    C10     16.5711   16.1232   25.2490 C.3     1  <1>   0.0773
11    C11     13.1773   21.4293   23.1242 C.3     1  <1>   0.0560
12    O12     15.5317   21.1337   22.9843 O.2     1  <1>  -0.3323
13    C13     17.5411   15.3881   24.3252 C.3     1  <1>   0.0098
14    C14     16.9507   15.8628   26.6872 C.2     1  <1>   0.0683
15    C15     12.8426   20.7981   21.7600 C.3     1  <1>   0.0050
16    N16     13.1771   22.8762   22.8641 N.4     1  <1>   0.2367
17    C17     17.3793   13.8980   24.5085 C.2     1  <1>   0.0458
18    O18     16.0952   15.2897   27.4969 O.co2   1  <1>  -0.5441
19    O19     18.0540   16.1864   27.0950 O.co2   1  <1>  -0.5441
20    C20     11.8859   21.8411   21.1530 C.3     1  <1>  -0.0068
21    C21     12.1252   23.1763   21.8821 C.3     1  <1>  -0.0326
22    O22     18.1524   13.0695   23.8514 O.co2   1  <1>  -0.5463
23    O23     16.5284   13.4657   25.2684 O.co2   1  <1>  -0.5463
24    H24     16.6699   20.0889   24.5966 H       1  <1>   0.0666
25    H25     13.7551   20.1988   25.3670 H       1  <1>   0.1798
26    H26     15.4572   20.4106   27.3927 H       1  <1>   0.0324
27    H27     17.2954   17.9224   24.3167 H       1  <1>   0.1793
28    H28     16.5027   22.6570   27.2868 H       1  <1>   0.0233
29    H29     17.0374   22.3498   25.6053 H       1  <1>   0.0233
30    H30     15.2817   22.4717   25.9897 H       1  <1>   0.0233
31    H31     17.5370   19.0841   27.3411 H       1  <1>   0.0233
32    H32     18.3526   20.3644   26.3906 H       1  <1>   0.0233
33    H33     17.8211   20.6903   28.0806 H       1  <1>   0.0233
34    H34     15.5472   15.7576   25.0825 H       1  <1>   0.0597
35    H35     12.3966   21.1904   23.8614 H       1  <1>   0.0966
36    H36     17.3244   15.6435   23.2775 H       1  <1>   0.0333
37    H37     18.5760   15.6669   24.5729 H       1  <1>   0.0333
38    H38     13.7404   20.6827   21.1351 H       1  <1>   0.0328
39    H39     12.3383   19.8274   21.8749 H       1  <1>   0.0328
40    H40     12.9865   23.3801   23.7159 H       1  <1>   0.2023
41    H41     14.0687   23.1597   22.4892 H       1  <1>   0.2023
42    H42     12.0936   21.9697   20.0806 H       1  <1>   0.0319
43    H43     10.8411   21.5294   21.2980 H       1  <1>   0.0319
44    H44     11.2018   23.5058   22.3808 H       1  <1>   0.0814
45    H45     12.4594   23.9429   21.1675 H       1  <1>   0.0814
@<TRIPOS>BOND
1     1     2     1
2     1     3     1
3     1     4     1
4     2     5     1
5     2     6     2
6     3     7     1
7     4     8     1
8     4     9     1
9     5     10    1
10    7     11    1
11    7     12    2
12    10    13    1
13    10    14    1
14    11    15    1
15    11    16    1
16    13    17    1
17    14    18    1
18    14    19    1
19    15    20    1
20    16    21    1
21    17    22    1
22    17    23    1
23    20    21    1
24    1     24    1
25    3     25    1
26    4     26    1
27    5     27    1
28    8     28    1
29    8     29    1
30    8     30    1
31    9     31    1
32    9     32    1
33    9     33    1
34    10    34    1
35    11    35    1
36    13    36    1
37    13    37    1
38    15    38    1
39    15    39    1
40    16    40    1
41    16    41    1
42    20    42    1
43    20    43    1
44    21    44    1
45    21    45    1
@<TRIPOS>SUBSTRUCTURE
1   ****   1     TEMP       0   ****  **** 


########## Number      : 8
########## Source num  : 8902
########## Name        : MFCD00065621
########## Description : FMOC-D-ARG(TOS)-OH
########## Reflect     : 0
########## Energy score                             :     -31.07
##########   van der Waals component                      -24.09
##########   electrostatic component                       -6.98
########## RMSD from input orientation (A)          :      33.87

@<TRIPOS>MOLECULE
MFCD00065621
68    71    1     0     0    
SMALL
GASTEIGER
****
FMOC-D-ARG(TOS)-OH
@<TRIPOS>ATOM
1     C1      16.9665    6.9863   25.3498 C.3     1  <1>   0.0321
2     C2      17.9626    6.0163   25.9391 C.ar    1  <1>  -0.0303
3     C3      15.6882    6.2013   25.1768 C.ar    1  <1>  -0.0303
4     C4      16.7367    8.1465   26.3173 C.3     1  <1>   0.0630
5     C5      17.3190    4.7825   26.0928 C.ar    1  <1>  -0.0138
6     C6      19.3033    6.1583   26.3162 C.ar    1  <1>  -0.0573
7     C7      15.9197    4.8951   25.6242 C.ar    1  <1>  -0.0138
8     C8      14.4285    6.5587   24.6814 C.ar    1  <1>  -0.0573
9     O9      17.0550    9.3796   25.6670 O.3     1  <1>  -0.3026
10    C10     18.0161    3.6907   26.6238 C.ar    1  <1>  -0.0537
11    C11     20.0004    5.0664   26.8472 C.ar    1  <1>  -0.0614
12    C12     14.8913    3.9463   25.5762 C.ar    1  <1>  -0.0537
13    C13     13.4002    5.6098   24.6334 C.ar    1  <1>  -0.0614
14    C14     16.9163   10.4888   26.3501 C.2     1  <1>   0.3345
15    C15     19.3569    3.8326   27.0010 C.ar    1  <1>  -0.0612
16    C16     13.6316    4.3037   25.0808 C.ar    1  <1>  -0.0612
17    N17     17.2012   11.6582   25.7842 N.am    1  <1>  -0.2631
18    O18     16.5260   10.4490   27.5053 O.2     1  <1>  -0.2946
19    C19     17.0456   12.9028   26.5508 C.3     1  <1>   0.0781
20    C20     17.1436   14.0990   25.6051 C.3     1  <1>  -0.0242
21    C21     18.1363   12.9930   27.5910 C.2     1  <1>   0.0687
22    C22     16.9818   15.3928   26.4018 C.3     1  <1>  -0.0319
23    O23     17.8677   13.4672   28.7823 O.co2   1  <1>  -0.5440
24    O24     19.2677   12.6242   27.3222 O.co2   1  <1>  -0.5440
25    C25     17.0798   16.5889   25.4561 C.3     1  <1>   0.0218
26    N26     16.9242   17.8337   26.2226 N.pl3   1  <1>  -0.3050
27    C27     17.0115   18.8984   25.3809 C.2     1  <1>   0.2088
28    N28     16.8961   20.1624   25.8692 N.am    1  <1>  -0.1649
29    N29     17.2081   18.7048   24.0900 N.2     1  <1>  -0.3040
30    S30     17.0164   21.5327   24.7872 S.o2    1  <1>   0.0505
31    C31     15.5694   21.5457   23.6508 C.ar    1  <1>   0.1158
32    O32     18.2213   21.4328   24.0236 O.2     1  <1>  -0.2053
33    O33     17.0344   22.7421   25.5500 O.2     1  <1>  -0.2053
34    C34     14.2731   21.6501   24.1693 C.ar    1  <1>  -0.0270
35    C35     15.7647   21.4512   22.2677 C.ar    1  <1>  -0.0270
36    C36     13.1721   21.6600   23.3045 C.ar    1  <1>  -0.0506
37    C37     14.6636   21.4611   21.4031 C.ar    1  <1>  -0.0506
38    C38     13.3674   21.5656   21.9215 C.ar    1  <1>  -0.0442
39    C39     12.1799   21.5763   20.9888 C.3     1  <1>  -0.0377
40    H40     17.3213    7.3840   24.3877 H       1  <1>   0.0418
41    H41     15.6818    8.1698   26.6280 H       1  <1>   0.0546
42    H42     17.3847    8.0312   27.1986 H       1  <1>   0.0546
43    H43     19.8017    7.1135   26.1971 H       1  <1>   0.0621
44    H44     14.2493    7.5701   24.3350 H       1  <1>   0.0621
45    H45     17.5178    2.7354   26.7428 H       1  <1>   0.0624
46    H46     21.0385    5.1763   27.1394 H       1  <1>   0.0618
47    H47     15.0705    2.9349   25.9226 H       1  <1>   0.0624
48    H48     12.4248    5.8866   24.2499 H       1  <1>   0.0618
49    H49     19.8966    2.9873   27.4121 H       1  <1>   0.0618
50    H50     12.8354    3.5689   25.0436 H       1  <1>   0.0618
51    H51     17.5212   11.6907   24.8374 H       1  <1>   0.1858
52    H52     16.0707   12.9083   27.0601 H       1  <1>   0.0602
53    H53     18.1268   14.1051   25.1120 H       1  <1>   0.0290
54    H54     16.3457   14.0439   24.8499 H       1  <1>   0.0290
55    H55     15.9979   15.4075   26.8935 H       1  <1>   0.0284
56    H56     17.7791   15.4687   27.1557 H       1  <1>   0.0284
57    H57     18.0631   16.5950   24.9631 H       1  <1>   0.0502
58    H58     16.2820   16.5338   24.7009 H       1  <1>   0.0502
59    H59     16.7725   17.8907   27.2397 H       1  <1>   0.1704
60    H60     16.7426   20.3089   26.8463 H       1  <1>   0.2269
61    H61     17.2935   17.7679   23.7281 H       1  <1>   0.1525
62    H62     14.1220   21.7231   25.2402 H       1  <1>   0.0673
63    H63     16.7685   21.3704   21.8663 H       1  <1>   0.0673
64    H64     12.1684   21.7408   23.7060 H       1  <1>   0.0655
65    H65     14.8148   21.3880   20.3321 H       1  <1>   0.0655
66    H66     11.2585   21.6641   21.5833 H       1  <1>   0.0282
67    H67     12.2480   22.4348   20.3047 H       1  <1>   0.0282
68    H68     12.1467   20.6397   20.4130 H       1  <1>   0.0282
@<TRIPOS>BOND
1     1     2     1
2     1     3     1
3     1     4     1
4     2     5     ar
5     2     6     ar
6     3     7     ar
7     3     8     ar
8     4     9     1
9     5     10    ar
10    6     11    ar
11    7     12    ar
12    8     13    ar
13    9     14    1
14    10    15    ar
15    12    16    ar
16    14    17    1
17    14    18    2
18    17    19    1
19    19    20    1
20    19    21    1
21    20    22    1
22    21    23    1
23    21    24    1
24    22    25    1
25    25    26    1
26    26    27    1
27    27    28    1
28    27    29    2
29    28    30    1
30    30    31    1
31    30    32    2
32    30    33    2
33    31    34    ar
34    31    35    ar
35    34    36    ar
36    35    37    ar
37    36    38    ar
38    38    39    1
39    5     7     ar
40    11    15    ar
41    13    16    ar
42    37    38    ar
43    1     40    1
44    4     41    1
45    4     42    1
46    6     43    1
47    8     44    1
48    10    45    1
49    11    46    1
50    12    47    1
51    13    48    1
52    15    49    1
53    16    50    1
54    17    51    1
55    19    52    1
56    20    53    1
57    20    54    1
58    22    55    1
59    22    56    1
60    25    57    1
61    25    58    1
62    26    59    1
63    28    60    1
64    29    61    1
65    34    62    1
66    35    63    1
67    36    64    1
68    37    65    1
69    39    66    1
70    39    67    1
71    39    68    1
@<TRIPOS>SUBSTRUCTURE
1   ****   1     TEMP       0   ****  **** 


########## Number      : 9
########## Source num  : 8563
########## Name        : MFCD00063473
########## Description : THIAMINE_MONOPHOSPHATE_CHLORIDE
########## Reflect     : 0
########## Energy score                             :     -30.99
##########   van der Waals component                      -17.60
##########   electrostatic component                      -13.39
########## RMSD from input orientation (A)          :      36.09

@<TRIPOS>MOLECULE
MFCD00063473
38    39    1     0     0    
SMALL
GASTEIGER
****
THIAMINE_MONOPHOSPHATE_CHLORIDE
@<TRIPOS>ATOM
1     N1      14.2869    5.9928   24.7968 N.2     1  <1>  -0.1981
2     C2      15.2983    6.9094   24.5746 C.2     1  <1>   0.1650
3     C3      13.2568    5.7141   23.7859 C.3     1  <1>   0.1115
4     C4      14.2982    5.3527   26.0227 C.2     1  <1>   0.1773
5     C5      16.2151    7.0809   25.6187 C.2     1  <1>   0.1197
6     C6      15.4076    7.6805   23.2810 C.3     1  <1>   0.0341
7     C7      13.7191    4.5871   22.8936 C.ar    1  <1>   0.0489
8     S8      15.6771    5.9950   26.8674 S.3     1  <1>   0.0463
9     C9      17.4086    8.0053   25.6537 C.3     1  <1>   0.0342
10    C10     12.9193    4.1230   21.8423 C.ar    1  <1>   0.1273
11    C11     14.9614    3.9723   23.0907 C.ar    1  <1>   0.0234
12    C12     16.9864    9.3609   26.2181 C.3     1  <1>   0.0616
13    N13     13.3614    3.1209   21.0704 N.ar    1  <1>  -0.2452
14    N14     11.6659    4.7022   21.5992 N.pl3   1  <1>  -0.3239
15    N15     15.3483    2.9741   22.2848 N.ar    1  <1>  -0.2718
16    O16     18.1167   10.2364   26.2512 O.3     1  <1>  -0.3538
17    C17     14.5567    2.5553   21.2879 C.ar    1  <1>   0.0925
18    P18     17.7482   11.6513   26.8232 P.3     1  <1>   0.0601
19    C19     15.0188    1.4283   20.3956 C.3     1  <1>  -0.0041
20    O20     19.0275   12.5612   26.8329 O.co2   1  <1>  -0.6336
21    O21     16.6447   12.3094   25.9209 O.co2   1  <1>  -0.6336
22    O22     17.2384   11.5078   28.1946 O.co2   1  <1>  -0.6336
23    H23     12.3204    5.4158   24.2799 H       1  <1>   0.0681
24    H24     13.0872    6.6093   23.1697 H       1  <1>   0.0681
25    H25     13.5932    4.6050   26.3831 H       1  <1>   0.1927
26    H26     16.2830    8.3446   23.3327 H       1  <1>   0.0445
27    H27     15.5356    6.9844   22.4390 H       1  <1>   0.0445
28    H28     14.5043    8.2898   23.1299 H       1  <1>   0.0445
29    H29     18.1914    7.5794   26.2984 H       1  <1>   0.0402
30    H30     17.7987    8.1495   24.6354 H       1  <1>   0.0402
31    H31     15.6095    4.3034   23.8941 H       1  <1>   0.0875
32    H32     16.2101    9.8059   25.5785 H       1  <1>   0.0571
33    H33     16.6029    9.2359   27.2414 H       1  <1>   0.0571
34    H34     11.0808    4.3576   20.8247 H       1  <1>   0.1746
35    H35     11.3301    5.4722   22.1951 H       1  <1>   0.1746
36    H36     14.2427    1.2264   19.6427 H       1  <1>   0.0339
37    H37     15.9495    1.7131   19.8831 H       1  <1>   0.0339
38    H38     15.1827    0.5196   20.9934 H       1  <1>   0.0339
@<TRIPOS>BOND
1     1     2     1
2     1     3     1
3     1     4     2
4     2     5     2
5     2     6     1
6     3     7     1
7     4     8     1
8     5     9     1
9     7     10    ar
10    7     11    ar
11    9     12    1
12    10    13    ar
13    10    14    1
14    11    15    ar
15    12    16    1
16    13    17    ar
17    16    18    1
18    17    19    1
19    18    20    1
20    18    21    1
21    18    22    1
22    5     8     1
23    15    17    ar
24    3     23    1
25    3     24    1
26    4     25    1
27    6     26    1
28    6     27    1
29    6     28    1
30    9     29    1
31    9     30    1
32    11    31    1
33    12    32    1
34    12    33    1
35    14    34    1
36    14    35    1
37    19    36    1
38    19    37    1
39    19    38    1
@<TRIPOS>SUBSTRUCTURE
1   ****   1     TEMP       0   ****  **** 


########## Number      : 10
########## Source num  : 2945
########## Name        : MFCD00020795
########## Description : 3-(4-(2-ETHYL-3-METHYL-5-OXO-3-PYRAZOLIN-1-YL)-PH-CARBAMOYL)-5-NONADECENOIC_ACID
########## Reflect     : 0
########## Energy score                             :     -30.97
##########   van der Waals component                      -22.67
##########   electrostatic component                       -8.30
########## RMSD from input orientation (A)          :      33.08

@<TRIPOS>MOLECULE
MFCD00020795
87    88    1     0     0    
SMALL
GASTEIGER
****
3-(4-(2-ETHYL-3-METHYL-5-OXO-3-PYRAZOLIN-1-YL)-PH-CARBAMOYL)-5-NONADECENOIC_ACID
@<TRIPOS>ATOM
1     N1      16.0640   18.8576   25.6568 N.am    1  <1>  -0.1509
2     C2      16.0699   17.5111   26.0919 C.ar    1  <1>   0.0717
3     N3      16.9968   19.7788   25.9572 N.pl3   1  <1>  -0.2203
4     C4      15.0982   19.4372   24.8543 C.2     1  <1>   0.2508
5     C5      15.4429   17.1612   27.2937 C.ar    1  <1>  -0.0446
6     C6      16.7028   16.5291   25.3207 C.ar    1  <1>  -0.0446
7     C7      16.6572   20.9773   25.3564 C.2     1  <1>   0.0353
8     C8      18.1859   19.5488   26.7902 C.3     1  <1>   0.0447
9     C9      15.4612   20.7749   24.6574 C.2     1  <1>   0.0191
10    O10     14.1021   18.8792   24.3969 O.2     1  <1>  -0.3278
11    C11     15.4487   15.8290   27.7243 C.ar    1  <1>  -0.0463
12    C12     16.7087   15.1969   25.7512 C.ar    1  <1>  -0.0463
13    C13     17.4348   22.2690   25.4391 C.3     1  <1>  -0.0292
14    C14     19.3449   19.0941   25.9079 C.3     1  <1>  -0.0436
15    C15     16.0816   14.8469   26.9530 C.ar    1  <1>   0.0460
16    N16     16.0874   13.5005   27.3881 N.am    1  <1>  -0.2627
17    C17     16.6887   12.5674   26.6555 C.2     1  <1>   0.2132
18    C18     16.6951   11.1306   27.1199 C.3     1  <1>   0.0488
19    O19     17.2397   12.8750   25.5996 O.2     1  <1>  -0.3310
20    C20     17.4266   10.2668   26.0935 C.3     1  <1>  -0.0215
21    C21     17.4083   11.0341   28.4677 C.3     1  <1>  -0.0034
22    C22     17.4329    8.8301   26.5578 C.2     1  <1>  -0.0870
23    C23     18.7377   11.7457   28.3858 C.2     1  <1>   0.0444
24    C24     18.0232    7.8871   25.8109 C.2     1  <1>  -0.0879
25    O25     19.5624   11.7119   29.4030 O.co2   1  <1>  -0.5464
26    O26     19.0435   12.3521   27.3724 O.co2   1  <1>  -0.5464
27    C27     18.0296    6.4503   26.2752 C.3     1  <1>  -0.0348
28    C28     18.7611    5.5865   25.2490 C.3     1  <1>  -0.0496
29    C29     18.7675    4.1326   25.7189 C.3     1  <1>  -0.0528
30    C30     19.4990    3.2687   24.6924 C.3     1  <1>  -0.0530
31    C31     19.5054    1.8148   25.1624 C.3     1  <1>  -0.0531
32    C32     20.2370    0.9510   24.1359 C.3     1  <1>  -0.0531
33    C33     20.2433   -0.5030   24.6059 C.3     1  <1>  -0.0531
34    C34     20.9749   -1.3667   23.5795 C.3     1  <1>  -0.0531
35    C35     20.9812   -2.8206   24.0494 C.3     1  <1>  -0.0531
36    C36     21.7127   -3.6845   23.0230 C.3     1  <1>  -0.0531
37    C37     21.7191   -5.1384   23.4929 C.3     1  <1>  -0.0533
38    C38     22.4507   -6.0022   22.4665 C.3     1  <1>  -0.0559
39    C39     22.4570   -7.4543   22.9359 C.3     1  <1>  -0.0653
40    H40     14.9529   17.9217   27.8909 H       1  <1>   0.0561
41    H41     17.1883   16.8001   24.3901 H       1  <1>   0.0561
42    H42     18.4707   20.4813   27.2993 H       1  <1>   0.0529
43    H43     17.9752   18.7653   27.5329 H       1  <1>   0.0529
44    H44     14.9175   21.5157   24.0729 H       1  <1>   0.0672
45    H45     14.9632   15.5580   28.6548 H       1  <1>   0.0561
46    H46     17.1988   14.4365   25.1540 H       1  <1>   0.0561
47    H47     16.9102   23.0408   24.8568 H       1  <1>   0.0267
48    H48     17.5063   22.5974   26.4865 H       1  <1>   0.0267
49    H49     18.4423   22.1277   25.0208 H       1  <1>   0.0267
50    H50     20.2300   18.9244   26.5386 H       1  <1>   0.0249
51    H51     19.0826   18.1551   25.3985 H       1  <1>   0.0249
52    H52     19.5781   19.8712   25.1651 H       1  <1>   0.0249
53    H53     15.6395   13.2506   28.2465 H       1  <1>   0.1994
54    H54     15.6621   10.7728   27.2408 H       1  <1>   0.0424
55    H55     16.9124   10.3249   25.1229 H       1  <1>   0.0317
56    H56     18.4658   10.6116   25.9886 H       1  <1>   0.0317
57    H57     16.7970   11.5106   29.2482 H       1  <1>   0.0318
58    H58     17.5847    9.9785   28.7217 H       1  <1>   0.0318
59    H59     16.9577    8.5601   27.4998 H       1  <1>   0.0569
60    H60     18.4984    8.1570   24.8689 H       1  <1>   0.0569
61    H61     18.5499    6.3728   27.2412 H       1  <1>   0.0307
62    H62     16.9965    6.0861   26.3754 H       1  <1>   0.0307
63    H63     18.2470    5.6446   24.2783 H       1  <1>   0.0268
64    H64     19.8003    5.9313   25.1442 H       1  <1>   0.0268
65    H65     19.2878    4.0551   26.6849 H       1  <1>   0.0265
66    H66     17.7344    3.7684   25.8191 H       1  <1>   0.0265
67    H67     18.9849    3.3268   23.7218 H       1  <1>   0.0265
68    H68     20.5383    3.6135   24.5877 H       1  <1>   0.0265
69    H69     20.0257    1.7373   26.1284 H       1  <1>   0.0265
70    H70     18.4723    1.4506   25.2626 H       1  <1>   0.0265
71    H71     19.7229    1.0091   23.1653 H       1  <1>   0.0265
72    H72     21.2762    1.2957   24.0312 H       1  <1>   0.0265
73    H73     20.7637   -0.5804   25.5719 H       1  <1>   0.0265
74    H74     19.2103   -0.8671   24.7060 H       1  <1>   0.0265
75    H75     20.4608   -1.3085   22.6088 H       1  <1>   0.0265
76    H76     22.0141   -1.0219   23.4747 H       1  <1>   0.0265
77    H77     21.5015   -2.8982   25.0154 H       1  <1>   0.0265
78    H78     19.9481   -3.1848   24.1496 H       1  <1>   0.0265
79    H79     21.1987   -3.6264   22.0523 H       1  <1>   0.0265
80    H80     22.7520   -3.3397   22.9182 H       1  <1>   0.0265
81    H81     22.2394   -5.2159   24.4589 H       1  <1>   0.0265
82    H82     20.6860   -5.5026   23.5931 H       1  <1>   0.0265
83    H83     21.9366   -5.9441   21.4958 H       1  <1>   0.0263
84    H84     23.4899   -5.6574   22.3617 H       1  <1>   0.0263
85    H85     22.9851   -8.0688   22.1919 H       1  <1>   0.0230
86    H86     22.9781   -7.5341   23.9013 H       1  <1>   0.0230
87    H87     21.4247   -7.8208   23.0354 H       1  <1>   0.0230
@<TRIPOS>BOND
1     1     2     1
2     1     3     1
3     1     4     1
4     2     5     ar
5     2     6     ar
6     3     7     1
7     3     8     1
8     4     9     1
9     4     10    2
10    5     11    ar
11    6     12    ar
12    7     13    1
13    8     14    1
14    11    15    ar
15    15    16    1
16    16    17    1
17    17    18    1
18    17    19    2
19    18    20    1
20    18    21    1
21    20    22    1
22    21    23    1
23    22    24    2
24    23    25    1
25    23    26    1
26    24    27    1
27    27    28    1
28    28    29    1
29    29    30    1
30    30    31    1
31    31    32    1
32    32    33    1
33    33    34    1
34    34    35    1
35    35    36    1
36    36    37    1
37    37    38    1
38    38    39    1
39    7     9     2
40    12    15    ar
41    5     40    1
42    6     41    1
43    8     42    1
44    8     43    1
45    9     44    1
46    11    45    1
47    12    46    1
48    13    47    1
49    13    48    1
50    13    49    1
51    14    50    1
52    14    51    1
53    14    52    1
54    16    53    1
55    18    54    1
56    20    55    1
57    20    56    1
58    21    57    1
59    21    58    1
60    22    59    1
61    24    60    1
62    27    61    1
63    27    62    1
64    28    63    1
65    28    64    1
66    29    65    1
67    29    66    1
68    30    67    1
69    30    68    1
70    31    69    1
71    31    70    1
72    32    71    1
73    32    72    1
74    33    73    1
75    33    74    1
76    34    75    1
77    34    76    1
78    35    77    1
79    35    78    1
80    36    79    1
81    36    80    1
82    37    81    1
83    37    82    1
84    38    83    1
85    38    84    1
86    39    85    1
87    39    86    1
88    39    87    1
@<TRIPOS>SUBSTRUCTURE
1   ****   1     TEMP       0   ****  **** 


########## Number      : 11
########## Source num  : 9668
########## Name        : MFCD00070396
########## Description : EPIAMASTATIN_HYDROCHLORIDE
########## Reflect     : 0
########## Energy score                             :     -30.86
##########   van der Waals component                      -10.65
##########   electrostatic component                      -20.21
########## RMSD from input orientation (A)          :      40.76

@<TRIPOS>MOLECULE
MFCD00070396
70    69    1     0     0    
SMALL
GASTEIGER
****
EPIAMASTATIN_HYDROCHLORIDE
@<TRIPOS>ATOM
1     C1      17.9487   16.4773   24.4559 C.3     1  <1>   0.1172
2     N2      17.6283   17.9097   24.5354 N.am    1  <1>  -0.2846
3     C3      18.8993   16.1115   25.5706 C.2     1  <1>   0.2189
4     C4      18.6034   16.1757   23.1086 C.3     1  <1>  -0.0143
5     C5      16.3681   18.3010   24.7026 C.2     1  <1>   0.2192
6     N6      18.5481   15.1983   26.4714 N.am    1  <1>  -0.2904
7     O7      19.9987   16.6582   25.6455 O.2     1  <1>  -0.3360
8     C8      17.6427   16.5454   21.9821 C.3     1  <1>  -0.0600
9     C9      18.9361   14.6887   23.0262 C.3     1  <1>  -0.0600
10    C10     16.0391   19.7725   24.7843 C.3     1  <1>   0.1172
11    O11     15.4709   17.4643   24.7909 O.2     1  <1>  -0.3360
12    C12     19.4736   14.8423   27.5566 C.3     1  <1>   0.0773
13    N13     14.7308   20.0172   24.1602 N.am    1  <1>  -0.2842
14    C14     15.9932   20.2036   26.2494 C.3     1  <1>  -0.0143
15    C15     18.8310   13.7784   28.4455 C.3     1  <1>   0.0098
16    C16     20.7542   14.3002   26.9683 C.2     1  <1>   0.0683
17    C17     14.6342   20.8381   23.1183 C.2     1  <1>   0.2283
18    C18     15.8751   21.7229   26.3291 C.3     1  <1>  -0.0600
19    C19     17.2716   19.7552   26.9519 C.3     1  <1>  -0.0600
20    C20     19.7815   13.4131   29.5606 C.2     1  <1>   0.0458
21    O21     21.8929   14.8995   27.2140 O.co2   1  <1>  -0.5441
22    O22     20.7285   13.3042   26.2644 O.co2   1  <1>  -0.5441
23    C23     13.2903   21.0896   22.4773 C.3     1  <1>   0.1744
24    O24     15.6395   21.3924   22.6767 O.2     1  <1>  -0.3355
25    O25     19.4353   12.5138   30.4480 O.co2   1  <1>  -0.5463
26    O26     20.8717   13.9555   29.6350 O.co2   1  <1>  -0.5463
27    C27     13.4564   22.0626   21.3109 C.3     1  <1>   0.0124
28    O28     12.7536   19.8548   21.9952 O.3     1  <1>  -0.3762
29    C29     12.0966   22.3171   20.6622 C.3     1  <1>  -0.0044
30    N30     14.0082   23.3318   21.8063 N.4     1  <1>   0.2231
31    C31     12.1413   21.8825   19.1980 C.3     1  <1>  -0.0415
32    C32     11.1423   20.7513   18.9724 C.3     1  <1>  -0.0625
33    C33     11.7800   23.0658   18.3049 C.3     1  <1>  -0.0625
34    H34     17.0269   15.8831   24.5412 H       1  <1>   0.0666
35    H35     18.3578   18.5900   24.4637 H       1  <1>   0.1797
36    H36     19.5351   16.7519   23.0090 H       1  <1>   0.0324
37    H37     17.6544   14.7538   26.4105 H       1  <1>   0.1793
38    H38     18.1214   16.3253   21.0165 H       1  <1>   0.0233
39    H39     16.7194   15.9536   22.0672 H       1  <1>   0.0233
40    H40     17.4059   17.6186   22.0281 H       1  <1>   0.0233
41    H41     19.6285   14.4309   23.8411 H       1  <1>   0.0233
42    H42     18.0181   14.0923   23.1341 H       1  <1>   0.0233
43    H43     19.4176   14.4649   22.0628 H       1  <1>   0.0233
44    H44     16.8144   20.3577   24.2683 H       1  <1>   0.0666
45    H45     19.7097   15.7352   28.1540 H       1  <1>   0.0597
46    H46     13.9134   19.5665   24.5191 H       1  <1>   0.1797
47    H47     15.1327   19.7353   26.7496 H       1  <1>   0.0324
48    H48     17.9015   14.1705   28.8842 H       1  <1>   0.0333
49    H49     18.6150   12.8776   27.8524 H       1  <1>   0.0333
50    H50     15.8427   22.0246   27.3864 H       1  <1>   0.0233
51    H51     16.7463   22.1926   25.8492 H       1  <1>   0.0233
52    H52     14.9503   22.0538   25.8339 H       1  <1>   0.0233
53    H53     17.3490   18.6597   26.8898 H       1  <1>   0.0233
54    H54     18.1470   20.2045   26.4603 H       1  <1>   0.0233
55    H55     17.2421   20.0528   28.0104 H       1  <1>   0.0233
56    H56     12.5958   21.5108   23.2190 H       1  <1>   0.0765
57    H57     14.1510   21.6413   20.5692 H       1  <1>   0.0882
58    H58     12.6531   19.2553   22.7253 H       1  <1>   0.2109
59    H59     11.3206   21.7364   21.1824 H       1  <1>   0.0323
60    H60     11.8563   23.3896   20.7081 H       1  <1>   0.0323
61    H61     14.9046   23.1559   22.2325 H       1  <1>   0.1998
62    H62     14.1296   23.9760   21.0406 H       1  <1>   0.1998
63    H63     13.3895   23.7299   22.4955 H       1  <1>   0.1998
64    H64     13.1551   21.5423   18.9403 H       1  <1>   0.0297
65    H65     11.1809   20.4447   17.9167 H       1  <1>   0.0232
66    H66     11.4018   19.8899   19.6053 H       1  <1>   0.0232
67    H67     10.1250   21.0968   19.2080 H       1  <1>   0.0232
68    H68     12.5044   23.8762   18.4736 H       1  <1>   0.0232
69    H69     11.8199   22.7640   17.2479 H       1  <1>   0.0232
70    H70     10.7719   23.4292   18.5533 H       1  <1>   0.0232
@<TRIPOS>BOND
1     1     2     1
2     1     3     1
3     1     4     1
4     2     5     1
5     3     6     1
6     3     7     2
7     4     8     1
8     4     9     1
9     5     10    1
10    5     11    2
11    6     12    1
12    10    13    1
13    10    14    1
14    12    15    1
15    12    16    1
16    13    17    1
17    14    18    1
18    14    19    1
19    15    20    1
20    16    21    1
21    16    22    1
22    17    23    1
23    17    24    2
24    20    25    1
25    20    26    1
26    23    27    1
27    23    28    1
28    27    29    1
29    27    30    1
30    29    31    1
31    31    32    1
32    31    33    1
33    1     34    1
34    2     35    1
35    4     36    1
36    6     37    1
37    8     38    1
38    8     39    1
39    8     40    1
40    9     41    1
41    9     42    1
42    9     43    1
43    10    44    1
44    12    45    1
45    13    46    1
46    14    47    1
47    15    48    1
48    15    49    1
49    18    50    1
50    18    51    1
51    18    52    1
52    19    53    1
53    19    54    1
54    19    55    1
55    23    56    1
56    27    57    1
57    28    58    1
58    29    59    1
59    29    60    1
60    30    61    1
61    30    62    1
62    30    63    1
63    31    64    1
64    32    65    1
65    32    66    1
66    32    67    1
67    33    68    1
68    33    69    1
69    33    70    1
@<TRIPOS>SUBSTRUCTURE
1   ****   1     TEMP       0   ****  **** 


########## Number      : 12
########## Source num  : 6558
########## Name        : MFCD00047780
########## Description : ACID_YELLOW_63
########## Reflect     : 0
########## Energy score                             :     -30.85
##########   van der Waals component                      -20.92
##########   electrostatic component                       -9.94
########## RMSD from input orientation (A)          :      44.54

@<TRIPOS>MOLECULE
MFCD00047780
46    48    1     0     0    
SMALL
GASTEIGER
****
ACID_YELLOW_63
@<TRIPOS>ATOM
1     C1      12.9668    2.6285   24.9248 C.ar    1  <1>   0.1323
2     N2      13.7705    3.2252   23.9246 N.am    1  <1>  -0.1245
3     C3      11.5800    2.5459   24.7516 C.ar    1  <1>   0.1892
4     C4      13.5585    2.1207   26.0876 C.ar    1  <1>  -0.0281
5     C5      14.4661    4.3281   24.4743 C.ar    1  <1>   0.1040
6     N6      14.7233    2.2526   23.4261 N.2     1  <1>   0.0434
7     C7      10.7848    1.9555   25.7411 C.ar    1  <1>   0.0180
8     N8      10.9588    3.0791   23.5307 N.pl3   1  <1>   0.0899
9     C9      12.7634    1.5303   27.0772 C.ar    1  <1>  -0.0234
10    C10     15.8329    4.2225   24.7583 C.ar    1  <1>   0.0197
11    C11     13.7875    5.5247   24.7341 C.ar    1  <1>  -0.0220
12    O12     14.7187    1.9437   22.2458 O.2     1  <1>  -0.1811
13    C13     11.3766    1.4476   26.9039 C.ar    1  <1>   0.1565
14    O14      9.8395    2.7231   23.2121 O.2     1  <1>  -0.1688
15    O15     11.5638    3.8765   22.8383 O.2     1  <1>  -0.1688
16    C16     16.5212    5.3136   25.3021 C.ar    1  <1>   0.1888
17    C17     14.4759    6.6158   25.2779 C.ar    1  <1>  -0.0291
18    N18     10.5417    0.8278   27.9429 N.pl3   1  <1>   0.0871
19    C19     15.8427    6.5102   25.5619 C.ar    1  <1>   0.1058
20    N20     17.9564    5.2027   25.6003 N.pl3   1  <1>   0.0938
21    O21     11.0560    0.3864   28.9537 O.2     1  <1>  -0.1689
22    O22      9.3362    0.7559   27.7923 O.2     1  <1>  -0.1689
23    N23     16.5310    7.6013   26.1057 N.2     1  <1>  -0.2010
24    O24     18.5547    6.1512   26.0731 O.2     1  <1>  -0.1672
25    O25     18.5462    4.1624   25.3744 O.2     1  <1>  -0.1672
26    N26     16.1646    8.7666   25.8405 N.2     1  <1>  -0.2002
27    C27     16.8529    9.8577   26.3843 C.ar    1  <1>   0.0743
28    C28     17.9355   10.4166   25.6947 C.ar    1  <1>  -0.0243
29    C29     16.4585   10.3899   27.6176 C.ar    1  <1>  -0.0243
30    C30     18.6239   11.5078   26.2385 C.ar    1  <1>  -0.0303
31    C31     17.1467   11.4811   28.1614 C.ar    1  <1>  -0.0303
32    C32     18.2294   12.0400   27.4719 C.ar    1  <1>   0.0591
33    S33     19.1340   13.4740   28.1867 S.3     1  <1>   0.1084
34    O34     18.5294   14.6902   27.7390 O.co2   1  <1>  -0.4060
35    O35     20.4991   13.4360   27.7623 O.co2   1  <1>  -0.4060
36    O36     19.0739   13.4073   29.6840 O.co2   1  <1>  -0.4060
37    H37     14.6323    2.1847   26.2217 H       1  <1>   0.0614
38    H38      9.7111    1.8916   25.6069 H       1  <1>   0.0652
39    H39     13.2214    1.1371   27.9775 H       1  <1>   0.0618
40    H40     16.3583    3.2959   24.5570 H       1  <1>   0.0706
41    H41     12.7292    5.6064   24.5142 H       1  <1>   0.0671
42    H42     13.9505    7.5424   25.4792 H       1  <1>   0.0662
43    H43     18.2408   10.0045   24.7397 H       1  <1>   0.0713
44    H44     15.6202    9.9572   28.1516 H       1  <1>   0.0713
45    H45     19.4622   11.9404   25.7047 H       1  <1>   0.0706
46    H46     16.8413   11.8932   29.1163 H       1  <1>   0.0706
@<TRIPOS>BOND
1     1     2     1
2     1     3     ar
3     1     4     ar
4     2     5     1
5     2     6     1
6     3     7     ar
7     3     8     1
8     4     9     ar
9     5     10    ar
10    5     11    ar
11    6     12    2
12    7     13    ar
13    8     14    2
14    8     15    2
15    10    16    ar
16    11    17    ar
17    13    18    1
18    16    19    ar
19    16    20    1
20    18    21    2
21    18    22    2
22    19    23    1
23    20    24    2
24    20    25    2
25    23    26    2
26    26    27    1
27    27    28    ar
28    27    29    ar
29    28    30    ar
30    29    31    ar
31    30    32    ar
32    32    33    1
33    33    34    1
34    33    35    1
35    33    36    1
36    9     13    ar
37    17    19    ar
38    31    32    ar
39    4     37    1
40    7     38    1
41    9     39    1
42    10    40    1
43    11    41    1
44    17    42    1
45    28    43    1
46    29    44    1
47    30    45    1
48    31    46    1
@<TRIPOS>SUBSTRUCTURE
1   ****   1     TEMP       0   ****  **** 


########## Number      : 13
########## Source num  : 415
########## Name        : MFCD00003114
########## Description : ACID_YELLOW_34
########## Reflect     : 0
########## Energy score                             :     -30.51
##########   van der Waals component                      -25.14
##########   electrostatic component                       -5.37
########## RMSD from input orientation (A)          :      40.53

@<TRIPOS>MOLECULE
MFCD00003114
38    40    1     0     0    
SMALL
GASTEIGER
****
ACID_YELLOW_34
@<TRIPOS>ATOM
1     N1      15.9491    6.3664   25.6744 N.pl3   1  <1>  -0.1495
2     C2      16.9052    7.4051   25.7709 C.ar    1  <1>   0.1107
3     C3      15.0911    6.1534   24.6108 C.2     1  <1>   0.2236
4     N4      15.7182    5.4086   26.6118 N.2     1  <1>  -0.1908
5     C5      16.5503    8.6322   26.3436 C.ar    1  <1>  -0.0094
6     C6      18.2061    7.2055   25.2936 C.ar    1  <1>   0.0676
7     C7      14.3221    5.0298   24.9249 C.2     1  <1>   0.1623
8     O8      15.0101    6.9018   23.4662 O.3     1  <1>  -0.3479
9     C9      14.7447    4.5922   26.1858 C.2     1  <1>   0.0808
10    C10     17.4963    9.6599   26.4390 C.ar    1  <1>   0.0504
11    C11     19.1521    8.2332   25.3891 C.ar    1  <1>  -0.0382
12    CL12    18.6371    5.7153   24.5982 Cl      1  <1>  -0.1018
13    N13     13.3226    4.4529   24.1324 N.2     1  <1>  -0.1783
14    C14     14.1968    3.4029   26.9378 C.3     1  <1>  -0.0150
15    C15     18.7972    9.4603   25.9619 C.ar    1  <1>  -0.0417
16    S16     17.0298   11.2727   27.1918 S.3     1  <1>   0.1041
17    N17     12.6516    5.1660   23.3554 N.2     1  <1>  -0.1964
18    O18     17.2833   11.2334   28.5986 O.co2   1  <1>  -0.4074
19    O19     15.6398   11.5206   26.9648 O.co2   1  <1>  -0.4074
20    O20     17.8415   12.3691   26.5680 O.co2   1  <1>  -0.4074
21    C21     11.6521    4.5892   22.5629 C.ar    1  <1>   0.0712
22    C22     10.3416    4.4968   23.0465 C.ar    1  <1>  -0.0292
23    C23     11.9631    4.1047   21.2867 C.ar    1  <1>  -0.0292
24    C24      9.3420    3.9199   22.2541 C.ar    1  <1>  -0.0498
25    C25     10.9635    3.5278   20.4943 C.ar    1  <1>  -0.0498
26    C26      9.6529    3.4354   20.9779 C.ar    1  <1>  -0.0514
27    H27     15.5429    8.7867   26.7132 H       1  <1>   0.0674
28    H28     14.3378    6.5353   22.9039 H       1  <1>   0.1979
29    H29     20.1594    8.0787   25.0194 H       1  <1>   0.0649
30    H30     13.4074    2.9305   26.3347 H       1  <1>   0.0316
31    H31     14.9977    2.6705   27.1163 H       1  <1>   0.0316
32    H32     13.7676    3.7303   27.8962 H       1  <1>   0.0316
33    H33     19.5297   10.2560   26.0359 H       1  <1>   0.0646
34    H34     10.1008    4.8719   24.0346 H       1  <1>   0.0691
35    H35     12.9777    4.1763   20.9121 H       1  <1>   0.0691
36    H36      8.3272    3.8485   22.6286 H       1  <1>   0.0674
37    H37     11.2043    3.1526   19.5062 H       1  <1>   0.0674
38    H38      8.8790    2.9887   20.3643 H       1  <1>   0.0674
@<TRIPOS>BOND
1     1     2     1
2     1     3     1
3     1     4     1
4     2     5     ar
5     2     6     ar
6     3     7     2
7     3     8     1
8     4     9     2
9     5     10    ar
10    6     11    ar
11    6     12    1
12    7     13    1
13    9     14    1
14    10    15    ar
15    10    16    1
16    13    17    2
17    16    18    1
18    16    19    1
19    16    20    1
20    17    21    1
21    21    22    ar
22    21    23    ar
23    22    24    ar
24    23    25    ar
25    24    26    ar
26    7     9     1
27    11    15    ar
28    25    26    ar
29    5     27    1
30    8     28    1
31    11    29    1
32    14    30    1
33    14    31    1
34    14    32    1
35    15    33    1
36    22    34    1
37    23    35    1
38    24    36    1
39    25    37    1
40    26    38    1
@<TRIPOS>SUBSTRUCTURE
1   ****   1     TEMP       0   ****  **** 


########## Number      : 14
########## Source num  : 7479
########## Name        : MFCD00056105
########## Description : DI(2,4-DINITROPHENYL)-L-LYSINE
########## Reflect     : 0
########## Energy score                             :     -30.15
##########   van der Waals component                      -22.11
##########   electrostatic component                       -8.04
########## RMSD from input orientation (A)          :      33.06

@<TRIPOS>MOLECULE
MFCD00056105
51    52    1     0     0    
SMALL
GASTEIGER
****
DI(2,4-DINITROPHENYL)-L-LYSINE
@<TRIPOS>ATOM
1     C1      19.7300   13.7658   26.6365 C.ar    1  <1>   0.0730
2     C2      19.4416   14.6608   27.6737 C.ar    1  <1>   0.1756
3     N3      19.7234   12.3723   26.8822 N.pl3   1  <1>  -0.3239
4     C4      20.0246   14.2495   25.3563 C.ar    1  <1>  -0.0417
5     C5      19.4480   16.0395   27.4306 C.ar    1  <1>   0.0122
6     N6      19.1323   14.1529   29.0181 N.pl3   1  <1>   0.0872
7     C7      18.5843   11.7572   26.1858 C.3     1  <1>   0.0677
8     C8      20.0310   15.6282   25.1131 C.ar    1  <1>  -0.0292
9     C9      19.7426   16.5232   26.1503 C.ar    1  <1>   0.1513
10    O10     18.9100   14.9317   29.9265 O.2     1  <1>  -0.1693
11    O11     19.0984   12.9537   29.2226 O.2     1  <1>  -0.1693
12    C12     18.4321   10.3065   26.6408 C.3     1  <1>  -0.0272
13    C13     17.3233   12.5217   26.5107 C.2     1  <1>   0.0672
14    N14     19.7494   17.9709   25.8951 N.pl3   1  <1>   0.0850
15    C15     17.2481    9.6672   25.9168 C.3     1  <1>  -0.0491
16    O16     16.8145   13.3495   25.6322 O.co2   1  <1>  -0.5441
17    O17     16.7784   12.3682   27.5914 O.co2   1  <1>  -0.5441
18    O18     20.0056   18.3914   24.7821 O.2     1  <1>  -0.1694
19    O19     19.4988   18.7489   26.7968 O.2     1  <1>  -0.1694
20    C20     17.0959    8.2165   26.3719 C.3     1  <1>  -0.0340
21    C21     15.9118    7.5771   25.6480 C.3     1  <1>   0.0202
22    N22     15.7654    6.1815   26.0858 N.pl3   1  <1>  -0.3305
23    C23     14.6690    5.5894   25.4153 C.ar    1  <1>   0.0726
24    C24     14.3306    4.2550   25.6698 C.ar    1  <1>   0.1756
25    C25     13.9225    6.3382   24.4976 C.ar    1  <1>  -0.0418
26    C26     13.2458    3.6692   25.0064 C.ar    1  <1>   0.0122
27    N27     15.1144    3.4689   26.6334 N.pl3   1  <1>   0.0872
28    C28     12.8377    5.7524   23.8342 C.ar    1  <1>  -0.0292
29    C29     12.4994    4.4179   24.0887 C.ar    1  <1>   0.1513
30    O30     14.5821    2.5761   27.2663 O.2     1  <1>  -0.1693
31    O31     16.2957    3.7109   26.7983 O.2     1  <1>  -0.1693
32    N32     11.3602    3.8029   23.3923 N.pl3   1  <1>   0.0850
33    O33     10.7113    4.4536   22.5944 O.2     1  <1>  -0.1694
34    O34     11.0661    2.6428   23.6134 O.2     1  <1>  -0.1694
35    H35     20.4106   11.8670   27.4597 H       1  <1>   0.1702
36    H36     20.2477   13.5565   24.5532 H       1  <1>   0.0580
37    H37     19.2249   16.7326   28.2337 H       1  <1>   0.0624
38    H38     18.7482   11.7924   25.0987 H       1  <1>   0.0586
39    H39     20.2592   16.0026   24.1218 H       1  <1>   0.0591
40    H40     19.3445    9.7419   26.3986 H       1  <1>   0.0289
41    H41     18.2469   10.2731   27.7245 H       1  <1>   0.0289
42    H42     16.3245   10.2143   26.1568 H       1  <1>   0.0267
43    H43     17.4220    9.6832   24.8309 H       1  <1>   0.0267
44    H44     18.0083    7.6519   26.1297 H       1  <1>   0.0284
45    H45     16.9107    8.1830   27.4557 H       1  <1>   0.0284
46    H46     14.9883    8.1242   25.8880 H       1  <1>   0.0504
47    H47     16.0858    7.5932   24.5620 H       1  <1>   0.0504
48    H48     16.3678    5.7079   26.7741 H       1  <1>   0.1697
49    H49     14.1844    7.3715   24.3008 H       1  <1>   0.0580
50    H50     12.9837    2.6360   25.2035 H       1  <1>   0.0624
51    H51     12.2598    6.3320   23.1235 H       1  <1>   0.0591
@<TRIPOS>BOND
1     1     2     ar
2     1     3     1
3     1     4     ar
4     2     5     ar
5     2     6     1
6     3     7     1
7     4     8     ar
8     5     9     ar
9     6     10    2
10    6     11    2
11    7     12    1
12    7     13    1
13    9     14    1
14    12    15    1
15    13    16    1
16    13    17    1
17    14    18    2
18    14    19    2
19    15    20    1
20    20    21    1
21    21    22    1
22    22    23    1
23    23    24    ar
24    23    25    ar
25    24    26    ar
26    24    27    1
27    25    28    ar
28    26    29    ar
29    27    30    2
30    27    31    2
31    29    32    1
32    32    33    2
33    32    34    2
34    8     9     ar
35    28    29    ar
36    3     35    1
37    4     36    1
38    5     37    1
39    7     38    1
40    8     39    1
41    12    40    1
42    12    41    1
43    15    42    1
44    15    43    1
45    20    44    1
46    20    45    1
47    21    46    1
48    21    47    1
49    22    48    1
50    25    49    1
51    26    50    1
52    28    51    1
@<TRIPOS>SUBSTRUCTURE
1   ****   1     TEMP       0   ****  **** 


########## Number      : 15
########## Source num  : 7579
########## Name        : MFCD00056715
########## Description : N-T-BOC-NLE-LEU-PHE
########## Reflect     : 0
########## Energy score                             :     -30.03
##########   van der Waals component                      -24.59
##########   electrostatic component                       -5.44
########## RMSD from input orientation (A)          :      32.41

@<TRIPOS>MOLECULE
MFCD00056715
75    75    1     0     0    
SMALL
GASTEIGER
****
N-T-BOC-NLE-LEU-PHE
@<TRIPOS>ATOM
1     C1      17.0285    6.8904   25.7816 C.3     1  <1>   0.1151
2     N2      16.4006    6.4026   24.5452 N.am    1  <1>  -0.2848
3     C3      17.2931    8.3721   25.6612 C.2     1  <1>   0.2186
4     C4      18.3482    6.1540   26.0074 C.3     1  <1>  -0.0182
5     C5      15.0796    6.2622   24.4808 C.2     1  <1>   0.2195
6     N6      17.8601    9.0304   26.6682 N.am    1  <1>  -0.2903
7     O7      16.9843    8.9703   24.6318 O.2     1  <1>  -0.3360
8     C8      18.0761    4.8248   26.7101 C.3     1  <1>  -0.0441
9     C9      14.4347    5.7612   23.2108 C.3     1  <1>   0.1193
10    O10     14.3834    6.5404   25.4559 O.2     1  <1>  -0.3360
11    C11     18.1177   10.4729   26.5509 C.3     1  <1>   0.0775
12    C12     19.4006    4.1751   27.1002 C.3     1  <1>  -0.0626
13    C13     17.3130    3.8982   25.7679 C.3     1  <1>  -0.0626
14    N14     12.9776    5.6950   23.3942 N.am    1  <1>  -0.2574
15    C15     14.7607    6.7158   22.0631 C.3     1  <1>  -0.0200
16    C16     17.3615   11.2164   27.6510 C.3     1  <1>  -0.0011
17    C17     19.5983   10.7330   26.6938 C.2     1  <1>   0.0684
18    C18     12.3433    4.5332   23.2656 C.2     1  <1>   0.3353
19    C19     14.1080    6.2089   20.7778 C.3     1  <1>  -0.0506
20    C20     17.4619   12.7042   27.4137 C.ar    1  <1>  -0.0450
21    O21     20.2293   11.4401   25.7894 O.co2   1  <1>  -0.5441
22    O22     20.2067   10.2848   27.6516 O.co2   1  <1>  -0.5441
23    O23     11.0448    4.4742   23.4291 O.3     1  <1>  -0.2978
24    O24     12.9706    3.5223   22.9953 O.2     1  <1>  -0.2946
25    C25     14.4341    7.1634   19.6302 C.3     1  <1>  -0.0558
26    C26     16.6878   13.3077   26.4153 C.ar    1  <1>  -0.0585
27    C27     18.3293   13.4802   28.1918 C.ar    1  <1>  -0.0585
28    C28     10.4066    3.2032   23.2809 C.3     1  <1>   0.0659
29    C29     13.7823    6.6572   18.3466 C.3     1  <1>  -0.0653
30    C30     16.7809   14.6871   26.1952 C.ar    1  <1>  -0.0615
31    C31     18.4224   14.8597   27.9717 C.ar    1  <1>  -0.0615
32    C32      8.9059    3.3577   23.5107 C.3     1  <1>  -0.0380
33    C33     10.6532    2.6714   21.8720 C.3     1  <1>  -0.0380
34    C34     10.9794    2.2242   24.3016 C.3     1  <1>  -0.0380
35    C35     17.6483   15.4631   26.9735 C.ar    1  <1>  -0.0617
36    H36     16.3658    6.6978   26.6381 H       1  <1>   0.0664
37    H37     16.9667    6.1764   23.7526 H       1  <1>   0.1797
38    H38     18.8333    5.9528   25.0409 H       1  <1>   0.0296
39    H39     19.0111    6.7622   26.6404 H       1  <1>   0.0296
40    H40     18.1112    8.5440   27.5051 H       1  <1>   0.1793
41    H41     17.4650    4.9957   27.6086 H       1  <1>   0.0296
42    H42     14.8255    4.7635   22.9619 H       1  <1>   0.0670
43    H43     17.7898   10.8318   25.5642 H       1  <1>   0.0599
44    H44     19.1958    3.2195   27.6052 H       1  <1>   0.0232
45    H45     20.0034    3.9828   26.2005 H       1  <1>   0.0232
46    H46     19.9526    4.8324   27.7880 H       1  <1>   0.0232
47    H47     16.3602    4.3736   25.4918 H       1  <1>   0.0232
48    H48     17.9026    3.7219   24.8563 H       1  <1>   0.0232
49    H49     17.1037    2.9421   26.2700 H       1  <1>   0.0232
50    H50     12.4635    6.5236   23.6157 H       1  <1>   0.1862
51    H51     14.3695    7.7186   22.2894 H       1  <1>   0.0294
52    H52     15.8496    6.7627   21.9148 H       1  <1>   0.0294
53    H53     16.3010   10.9245   27.6374 H       1  <1>   0.0338
54    H54     17.8025   10.9817   28.6309 H       1  <1>   0.0338
55    H55     14.4965    5.2098   20.5312 H       1  <1>   0.0266
56    H56     13.0164    6.1657   20.9057 H       1  <1>   0.0266
57    H57     14.0430    8.1663   19.8565 H       1  <1>   0.0263
58    H58     15.5231    7.2102   19.4820 H       1  <1>   0.0263
59    H59     16.0162   12.7068   25.8127 H       1  <1>   0.0620
60    H60     18.9288   13.0130   28.9647 H       1  <1>   0.0620
61    H61     14.0218    7.3496   17.5261 H       1  <1>   0.0230
62    H62     14.1704    5.6586   18.0974 H       1  <1>   0.0230
63    H63     12.6903    6.6146   18.4720 H       1  <1>   0.0230
64    H64     16.1814   15.1544   25.4223 H       1  <1>   0.0618
65    H65     19.0940   15.4605   28.5742 H       1  <1>   0.0618
66    H66      8.4230    2.3762   23.3950 H       1  <1>   0.0255
67    H67      8.7188    3.7311   24.5283 H       1  <1>   0.0255
68    H68      8.4830    4.0542   22.7720 H       1  <1>   0.0255
69    H69     10.1592    1.6942   21.7665 H       1  <1>   0.0255
70    H70     10.2338    3.3666   21.1298 H       1  <1>   0.0255
71    H71     11.7328    2.5472   21.7015 H       1  <1>   0.0255
72    H72     10.4834    1.2499   24.1808 H       1  <1>   0.0255
73    H73     12.0596    2.0992   24.1362 H       1  <1>   0.0255
74    H74     10.7965    2.5953   25.3209 H       1  <1>   0.0255
75    H75     17.7205   16.5312   26.8032 H       1  <1>   0.0618
@<TRIPOS>BOND
1     1     2     1
2     1     3     1
3     1     4     1
4     2     5     1
5     3     6     1
6     3     7     2
7     4     8     1
8     5     9     1
9     5     10    2
10    6     11    1
11    8     12    1
12    8     13    1
13    9     14    1
14    9     15    1
15    11    16    1
16    11    17    1
17    14    18    1
18    15    19    1
19    16    20    1
20    17    21    1
21    17    22    1
22    18    23    1
23    18    24    2
24    19    25    1
25    20    26    ar
26    20    27    ar
27    23    28    1
28    25    29    1
29    26    30    ar
30    27    31    ar
31    28    32    1
32    28    33    1
33    28    34    1
34    30    35    ar
35    31    35    ar
36    1     36    1
37    2     37    1
38    4     38    1
39    4     39    1
40    6     40    1
41    8     41    1
42    9     42    1
43    11    43    1
44    12    44    1
45    12    45    1
46    12    46    1
47    13    47    1
48    13    48    1
49    13    49    1
50    14    50    1
51    15    51    1
52    15    52    1
53    16    53    1
54    16    54    1
55    19    55    1
56    19    56    1
57    25    57    1
58    25    58    1
59    26    59    1
60    27    60    1
61    29    61    1
62    29    62    1
63    29    63    1
64    30    64    1
65    31    65    1
66    32    66    1
67    32    67    1
68    32    68    1
69    33    69    1
70    33    70    1
71    33    71    1
72    34    72    1
73    34    73    1
74    34    74    1
75    35    75    1
@<TRIPOS>SUBSTRUCTURE
1   ****   1     TEMP       0   ****  **** 


########## Number      : 16
########## Source num  : 6775
########## Name        : MFCD00050527
########## Description : CARMINATE,_AMMONIUM
########## Reflect     : 0
########## Energy score                             :     -29.83
##########   van der Waals component                      -19.57
##########   electrostatic component                      -10.26
########## RMSD from input orientation (A)          :      43.46

@<TRIPOS>MOLECULE
MFCD00050527
54    57    1     0     0    
SMALL
GASTEIGER
****
CARMINATE,_AMMONIUM
@<TRIPOS>ATOM
1     C1      17.8613    8.1015   26.1495 C.ar    1  <1>   0.0975
2     C2      19.2055    7.8802   25.8269 C.ar    1  <1>   0.0993
3     C3      17.4233    9.3860   26.7399 C.2     1  <1>   0.1919
4     C4      16.9110    7.1007   25.9143 C.ar    1  <1>   0.1060
5     C5      20.2161    8.9335   26.0726 C.2     1  <1>   0.1918
6     C6      19.5995    6.6580   25.2691 C.ar    1  <1>   0.1255
7     C7      18.4301   10.4421   26.9874 C.ar    1  <1>   0.0595
8     O8      16.2405    9.5729   27.0207 O.2     1  <1>  -0.3342
9     C9      17.3050    5.8785   25.3565 C.ar    1  <1>   0.0638
10    O10     15.5957    7.3173   26.2301 O.3     1  <1>  -0.3662
11    C11     19.7731   10.2163   26.6632 C.ar    1  <1>   0.0584
12    O12     21.3989    8.7466   25.7918 O.2     1  <1>  -0.3342
13    C13     18.6492    5.6572   25.0339 C.ar    1  <1>   0.1188
14    O14     20.9149    6.4414   24.9534 O.3     1  <1>  -0.3649
15    C15     18.0408   11.6659   27.5450 C.ar    1  <1>  -0.0151
16    C16     16.2800    4.7991   25.1028 C.3     1  <1>   0.1243
17    C17     20.7270   11.2142   26.8966 C.ar    1  <1>  -0.0093
18    O18     19.0347    4.4612   24.4881 O.3     1  <1>  -0.3653
19    C19     18.9947   12.6637   27.7784 C.ar    1  <1>   0.0350
20    C20     16.5922   11.9095   27.8947 C.3     1  <1>  -0.0347
21    O21     15.0480    5.1360   25.7460 O.3     1  <1>  -0.3593
22    C22     16.0960    4.5958   23.5874 C.3     1  <1>   0.1153
23    C23     20.3378   12.4379   27.4542 C.ar    1  <1>   0.0775
24    C24     18.5832   13.9575   28.3678 C.2     1  <1>   0.0829
25    C25     14.0872    4.0854   25.6134 C.3     1  <1>   0.1110
26    C26     14.9947    3.5566   23.3068 C.3     1  <1>   0.1122
27    O27     15.7307    5.8414   22.9872 O.3     1  <1>  -0.3861
28    O28     21.2711   13.4145   27.6825 O.3     1  <1>  -0.3729
29    O29     18.6184   14.1263   29.6664 O.co2   1  <1>  -0.5377
30    O30     18.2111   14.8666   27.6444 O.co2   1  <1>  -0.5377
31    C31     13.7270    3.8247   24.1390 C.3     1  <1>   0.1118
32    C32     14.6238    2.8054   26.2525 C.3     1  <1>   0.0729
33    O33     15.4915    2.2517   23.6160 O.3     1  <1>  -0.3865
34    O34     13.0515    4.9691   23.6108 O.3     1  <1>  -0.3865
35    O35     13.5415    1.9015   26.4905 O.3     1  <1>  -0.3924
36    H36     15.5048    8.1896   26.5950 H       1  <1>   0.1971
37    H37     21.4180    7.2160   25.1759 H       1  <1>   0.1972
38    H38     16.6475    3.8507   25.5218 H       1  <1>   0.0694
39    H39     21.7669   11.0392   26.6456 H       1  <1>   0.0708
40    H40     19.9717    4.4800   24.3325 H       1  <1>   0.1972
41    H41     16.0065   11.0144   27.6384 H       1  <1>   0.0286
42    H42     16.4943   12.1049   28.9727 H       1  <1>   0.0286
43    H43     16.2069   12.7657   27.3219 H       1  <1>   0.0286
44    H44     17.0436    4.2555   23.1448 H       1  <1>   0.0651
45    H45     13.1733    4.3748   26.1527 H       1  <1>   0.0646
46    H46     14.7183    3.6040   22.2432 H       1  <1>   0.0647
47    H47     16.4117    6.4804   23.1619 H       1  <1>   0.2100
48    H48     22.1235   13.0980   27.4075 H       1  <1>   0.1949
49    H49     13.0744    2.9419   24.0708 H       1  <1>   0.0647
50    H50     15.3462    2.3254   25.5761 H       1  <1>   0.0584
51    H51     15.1077    3.0418   27.2116 H       1  <1>   0.0584
52    H52     16.2733    2.0885   23.1016 H       1  <1>   0.2100
53    H53     12.2701    5.1321   24.1259 H       1  <1>   0.2100
54    H54     13.8823    1.1085   26.8876 H       1  <1>   0.2095
@<TRIPOS>BOND
1     1     2     ar
2     1     3     1
3     1     4     ar
4     2     5     1
5     2     6     ar
6     3     7     1
7     3     8     2
8     4     9     ar
9     4     10    1
10    5     11    1
11    5     12    2
12    6     13    ar
13    6     14    1
14    7     15    ar
15    9     16    1
16    11    17    ar
17    13    18    1
18    15    19    ar
19    15    20    1
20    16    21    1
21    16    22    1
22    17    23    ar
23    19    24    1
24    21    25    1
25    22    26    1
26    22    27    1
27    23    28    1
28    24    29    1
29    24    30    1
30    25    31    1
31    25    32    1
32    26    33    1
33    31    34    1
34    32    35    1
35    7     11    ar
36    9     13    ar
37    19    23    ar
38    26    31    1
39    10    36    1
40    14    37    1
41    16    38    1
42    17    39    1
43    18    40    1
44    20    41    1
45    20    42    1
46    20    43    1
47    22    44    1
48    25    45    1
49    26    46    1
50    27    47    1
51    28    48    1
52    31    49    1
53    32    50    1
54    32    51    1
55    33    52    1
56    34    53    1
57    35    54    1
@<TRIPOS>SUBSTRUCTURE
1   ****   1     TEMP       0   ****  **** 


########## Number      : 17
########## Source num  : 8038
########## Name        : MFCD00058549
########## Description : ADENYLYL_5'-PHOSPHORAMIDATE_AMMONIUM_SALT
########## Reflect     : 0
########## Energy score                             :     -29.80
##########   van der Waals component                      -18.60
##########   electrostatic component                      -11.20
########## RMSD from input orientation (A)          :      40.19

@<TRIPOS>MOLECULE
MFCD00058549
43    45    1     0     0    
SMALL
GASTEIGER
****
ADENYLYL_5'-PHOSPHORAMIDATE_AMMONIUM_SALT
@<TRIPOS>ATOM
1     N1      18.0335    5.2388   25.6884 N.pl3   1  <1>  -0.2214
2     C2      16.6684    5.4602   25.6943 C.ar    1  <1>   0.1632
3     C3      19.0724    6.1982   25.2874 C.3     1  <1>   0.1822
4     C4      18.2369    3.9445   26.1312 C.2     1  <1>   0.0871
5     C5      16.0715    4.2775   26.1468 C.ar    1  <1>   0.1257
6     N6      15.8988    6.5090   25.3726 N.ar    1  <1>  -0.2452
7     O7      18.9724    7.3822   26.0830 O.3     1  <1>  -0.3413
8     C8      18.8235    6.6631   23.8404 C.3     1  <1>   0.1333
9     N9      17.0455    3.3924   26.3985 N.2     1  <1>  -0.2764
10    C10     14.6753    4.2430   26.2446 C.ar    1  <1>   0.1417
11    C11     14.5646    6.4415   25.4782 C.ar    1  <1>   0.0835
12    C12     19.5712    8.4659   25.3675 C.3     1  <1>   0.1138
13    C13     19.3960    8.0920   23.8839 C.3     1  <1>   0.1140
14    O14     19.5246    5.8461   22.8993 O.3     1  <1>  -0.3841
15    N15     13.9604    5.3252   25.9079 N.ar    1  <1>  -0.2481
16    N16     14.0285    3.0825   26.6924 N.pl3   1  <1>  -0.3228
17    C17     18.9019    9.7994   25.6972 C.3     1  <1>   0.0872
18    O18     20.6748    8.1034   23.2441 O.3     1  <1>  -0.3864
19    O19     19.1234   10.1164   27.0739 O.3     1  <1>  -0.2910
20    P20     18.4047   11.4474   27.4940 P.3     1  <1>   0.4256
21    O21     19.0707   12.0127   28.7985 O.3     1  <1>  -0.2366
22    N22     16.7886   11.1404   27.7821 N.am    1  <1>  -0.2954
23    O23     18.5296   12.4281   26.4194 O.2     1  <1>  -0.2365
24    P24     19.2681   13.5688   28.7312 P.3     1  <1>   0.2163
25    N25     17.8152   14.2983   28.3493 N.am    1  <1>  -0.3314
26    O26     20.3324   13.9142   27.6299 O.co2   1  <1>  -0.5171
27    O27     19.7321   14.0570   30.0265 O.co2   1  <1>  -0.5171
28    H28     20.0695    5.7417   25.3734 H       1  <1>   0.0928
29    H29     19.2035    3.4558   26.2438 H       1  <1>   0.1020
30    H30     17.7536    6.6566   23.5851 H       1  <1>   0.0671
31    H31     13.9644    7.3038   25.2115 H       1  <1>   0.1142
32    H32     20.6438    8.5350   25.6017 H       1  <1>   0.0647
33    H33     18.7137    8.8045   23.3974 H       1  <1>   0.0648
34    H34     19.1439    4.9757   22.9013 H       1  <1>   0.2101
35    H35     13.0012    3.0602   26.7632 H       1  <1>   0.1748
36    H36     14.5807    2.2522   26.9506 H       1  <1>   0.1748
37    H37     19.3328   10.5971   25.0744 H       1  <1>   0.0592
38    H38     17.8190    9.7275   25.5182 H       1  <1>   0.0592
39    H39     20.5650    7.8726   22.3292 H       1  <1>   0.2100
40    H40     16.2114   10.7740   27.0523 H       1  <1>   0.1477
41    H41     16.3981   11.3229   28.6845 H       1  <1>   0.1477
42    H42     17.7621   15.2934   28.2657 H       1  <1>   0.1442
43    H43     16.9982   13.7401   28.2043 H       1  <1>   0.1442
@<TRIPOS>BOND
1     1     2     1
2     1     3     1
3     1     4     1
4     2     5     ar
5     2     6     ar
6     3     7     1
7     3     8     1
8     4     9     2
9     5     10    ar
10    6     11    ar
11    7     12    1
12    8     13    1
13    8     14    1
14    10    15    ar
15    10    16    1
16    12    17    1
17    13    18    1
18    17    19    1
19    19    20    1
20    20    21    1
21    20    22    1
22    20    23    2
23    21    24    1
24    24    25    1
25    24    26    1
26    24    27    1
27    5     9     1
28    11    15    ar
29    12    13    1
30    3     28    1
31    4     29    1
32    8     30    1
33    11    31    1
34    12    32    1
35    13    33    1
36    14    34    1
37    16    35    1
38    16    36    1
39    17    37    1
40    17    38    1
41    18    39    1
42    22    40    1
43    22    41    1
44    25    42    1
45    25    43    1
@<TRIPOS>SUBSTRUCTURE
1   ****   1     TEMP       0   ****  **** 


########## Number      : 18
########## Source num  : 7626
########## Name        : MFCD00056982
########## Description : N6-(6-AMINOHEXYL)ADENOSINE_5'-MONOPHOSPHATE_SODIUM_SALT
########## Reflect     : 0
########## Energy score                             :     -29.30
##########   van der Waals component                      -18.82
##########   electrostatic component                      -10.48
########## RMSD from input orientation (A)          :      43.34

@<TRIPOS>MOLECULE
MFCD00056982
56    58    1     0     0    
SMALL
GASTEIGER
****
N6-(6-AMINOHEXYL)ADENOSINE_5'-MONOPHOSPHATE_SODIUM_SALT
@<TRIPOS>ATOM
1     N1      19.0884   16.3803   25.5624 N.pl3   1  <1>  -0.2214
2     C2      17.7996   16.3974   26.0637 C.ar    1  <1>   0.1632
3     C3      20.0653   15.2906   25.7011 C.3     1  <1>   0.1822
4     C4      19.2849   17.5817   24.9061 C.2     1  <1>   0.0871
5     C5      17.2387   17.6245   25.6950 C.ar    1  <1>   0.1259
6     N6      17.0697   15.5253   26.7724 N.ar    1  <1>  -0.2452
7     O7      19.5251   14.0830   25.1583 O.3     1  <1>  -0.3413
8     C8      20.3043   14.9902   27.1925 C.3     1  <1>   0.1333
9     N9      18.1627   18.3080   24.9998 N.2     1  <1>  -0.2764
10    C10     15.9233   17.8928   26.0851 C.ar    1  <1>   0.1442
11    C11     15.8111   15.8130   27.1313 C.ar    1  <1>   0.0835
12    C12     20.1953   12.9717   25.7589 C.3     1  <1>   0.1136
13    C13     20.6266   13.4850   27.1452 C.3     1  <1>   0.1140
14    O14     21.4028   15.7453   27.7100 O.3     1  <1>  -0.3841
15    N15     15.2450   16.9795   26.7932 N.ar    1  <1>  -0.2480
16    N16     15.3117   19.1199   25.7358 N.pl3   1  <1>  -0.3087
17    C17     19.2815   11.7518   25.8670 C.3     1  <1>   0.0809
18    O18     22.0374   13.3036   27.2934 O.3     1  <1>  -0.3864
19    C19     14.6349   18.9783   24.4386 C.3     1  <1>   0.0255
20    O20     18.8795   11.3398   24.5579 O.3     1  <1>  -0.3519
21    C21     13.9743   20.3036   24.0613 C.3     1  <1>  -0.0332
22    P22     17.9356   10.0859   24.5999 P.3     1  <1>   0.0602
23    C23     13.2708   20.1563   22.7130 C.3     1  <1>  -0.0511
24    O24     17.5318    9.6857   23.1365 O.co2   1  <1>  -0.6336
25    O25     18.6391    8.9641   25.2383 O.co2   1  <1>  -0.6336
26    O26     16.6771   10.4217   25.4025 O.co2   1  <1>  -0.6336
27    C27     12.6102   21.4816   22.3357 C.3     1  <1>  -0.0482
28    C28     11.9067   21.3344   20.9874 C.3     1  <1>  -0.0126
29    C29     11.2462   22.6595   20.6102 C.3     1  <1>  -0.0354
30    N30     10.5694   22.5180   19.3130 N.4     1  <1>   0.2185
31    H31     21.0126   15.5604   25.2115 H       1  <1>   0.0928
32    H32     20.1987   17.8864   24.3982 H       1  <1>   0.1020
33    H33     19.4131   15.2008   27.8020 H       1  <1>   0.0671
34    H34     15.2417   15.0903   27.7045 H       1  <1>   0.1142
35    H35     21.0883   12.7010   25.1765 H       1  <1>   0.0647
36    H36     20.0820   12.9408   27.9309 H       1  <1>   0.0648
37    H37     21.1665   16.6654   27.7236 H       1  <1>   0.2101
38    H38     15.3367   19.9795   26.3027 H       1  <1>   0.1784
39    H39     19.8203   10.9239   26.3510 H       1  <1>   0.0590
40    H40     18.3850   12.0079   26.4506 H       1  <1>   0.0590
41    H41     22.3018   13.6207   28.1490 H       1  <1>   0.2100
42    H42     15.3677   18.7123   23.6626 H       1  <1>   0.0515
43    H43     13.8600   18.2006   24.5051 H       1  <1>   0.0515
44    H44     13.2301   20.5796   24.8229 H       1  <1>   0.0284
45    H45     14.7378   21.0912   23.9803 H       1  <1>   0.0284
46    H46     14.0035   19.8902   21.9371 H       1  <1>   0.0266
47    H47     12.4958   19.3786   22.7796 H       1  <1>   0.0266
48    H48     11.8661   21.7576   23.0973 H       1  <1>   0.0267
49    H49     13.3738   22.2692   22.2547 H       1  <1>   0.0267
50    H50     12.6395   21.0682   20.2114 H       1  <1>   0.0317
51    H51     11.1317   20.5566   21.0540 H       1  <1>   0.0317
52    H52     10.5020   22.9355   21.3717 H       1  <1>   0.0813
53    H53     12.0098   23.4471   20.5293 H       1  <1>   0.0813
54    H54     10.1364   23.3956   19.0712 H       1  <1>   0.1994
55    H55     11.2395   22.2753   18.6003 H       1  <1>   0.1994
56    H56      9.8580   21.8064   19.3723 H       1  <1>   0.1994
@<TRIPOS>BOND
1     1     2     1
2     1     3     1
3     1     4     1
4     2     5     ar
5     2     6     ar
6     3     7     1
7     3     8     1
8     4     9     2
9     5     10    ar
10    6     11    ar
11    7     12    1
12    8     13    1
13    8     14    1
14    10    15    ar
15    10    16    1
16    12    17    1
17    13    18    1
18    16    19    1
19    17    20    1
20    19    21    1
21    20    22    1
22    21    23    1
23    22    24    1
24    22    25    1
25    22    26    1
26    23    27    1
27    27    28    1
28    28    29    1
29    29    30    1
30    5     9     1
31    11    15    ar
32    12    13    1
33    3     31    1
34    4     32    1
35    8     33    1
36    11    34    1
37    12    35    1
38    13    36    1
39    14    37    1
40    16    38    1
41    17    39    1
42    17    40    1
43    18    41    1
44    19    42    1
45    19    43    1
46    21    44    1
47    21    45    1
48    23    46    1
49    23    47    1
50    27    48    1
51    27    49    1
52    28    50    1
53    28    51    1
54    29    52    1
55    29    53    1
56    30    54    1
57    30    55    1
58    30    56    1
@<TRIPOS>SUBSTRUCTURE
1   ****   1     TEMP       0   ****  **** 


########## Number      : 19
########## Source num  : 5282
########## Name        : MFCD00037435
########## Description : N-T-BOC-MET-LEU-PHE
########## Reflect     : 0
########## Energy score                             :     -29.28
##########   van der Waals component                      -24.47
##########   electrostatic component                       -4.81
########## RMSD from input orientation (A)          :      32.41

@<TRIPOS>MOLECULE
MFCD00037435
73    73    1     0     0    
SMALL
GASTEIGER
****
N-T-BOC-MET-LEU-PHE
@<TRIPOS>ATOM
1     C1      17.0418    6.8601   25.8257 C.3     1  <1>   0.1151
2     N2      16.4002    6.3629   24.6001 N.am    1  <1>  -0.2848
3     C3      17.2927    8.3434   25.6964 C.2     1  <1>   0.2186
4     C4      18.3705    6.1351   26.0351 C.3     1  <1>  -0.0182
5     C5      15.0797    6.2116   24.5552 C.2     1  <1>   0.2195
6     N6      17.8687    9.0098   26.6929 N.am    1  <1>  -0.2903
7     O7      16.9643    8.9355   24.6695 O.2     1  <1>  -0.3360
8     C8      18.1192    4.8063   26.7463 C.3     1  <1>  -0.0441
9     C9      14.4206    5.7010   23.2962 C.3     1  <1>   0.1201
10    O10     14.3952    6.4877   25.5392 O.2     1  <1>  -0.3360
11    C11     18.1130   10.4539   26.5670 C.3     1  <1>   0.0775
12    C12     19.4544    4.1686   27.1195 C.3     1  <1>  -0.0626
13    C13     17.3502    3.8702   25.8183 C.3     1  <1>  -0.0626
14    N14     12.9670    5.6238   23.5008 N.am    1  <1>  -0.2573
15    C15     14.7225    6.6541   22.1408 C.3     1  <1>  -0.0110
16    C16     17.3666   11.1953   27.6752 C.3     1  <1>  -0.0011
17    C17     19.5932   10.7265   26.6877 C.2     1  <1>   0.0684
18    C18     12.3402    4.4564   23.3853 C.2     1  <1>   0.3353
19    C19     14.0555    6.1374   20.8667 C.3     1  <1>  -0.0039
20    C20     17.4516   12.6829   27.4313 C.ar    1  <1>  -0.0450
21    O21     20.2056   11.4353   25.7719 O.co2   1  <1>  -0.5441
22    O22     20.2191   10.2865   27.6381 O.co2   1  <1>  -0.5441
23    O23     11.0448    4.3876   23.5675 O.3     1  <1>  -0.2978
24    O24     12.9717    3.4497   23.1096 O.2     1  <1>  -0.2946
25    S25     14.4151    7.2726   19.4904 S.3     1  <1>  -0.1640
26    C26     16.6584   13.2766   26.4422 C.ar    1  <1>  -0.0585
27    C27     18.3238   13.4687   28.1942 C.ar    1  <1>  -0.0585
28    C28     10.4147    3.1111   23.4330 C.3     1  <1>   0.0659
29    C29     13.5716    6.5481   18.0496 C.3     1  <1>  -0.0181
30    C30     16.7372   14.6560   26.2160 C.ar    1  <1>  -0.0615
31    C31     18.4026   14.8480   27.9681 C.ar    1  <1>  -0.0615
32    C32      8.9163    3.2543   23.6838 C.3     1  <1>  -0.0380
33    C33     10.6455    2.5761   22.0225 C.3     1  <1>  -0.0380
34    C34     11.0100    2.1403   24.4489 C.3     1  <1>  -0.0380
35    C35     17.6094   15.4417   26.9790 C.ar    1  <1>  -0.0617
36    H36     16.3929    6.6652   26.6923 H       1  <1>   0.0664
37    H37     16.9567    6.1384   23.8001 H       1  <1>   0.1797
38    H38     18.8432    5.9345   25.0623 H       1  <1>   0.0296
39    H39     19.0374    6.7508   26.6564 H       1  <1>   0.0296
40    H40     18.1357    8.5284   27.5278 H       1  <1>   0.1793
41    H41     17.5198    4.9754   27.6529 H       1  <1>   0.0296
42    H42     14.8158    4.7056   23.0452 H       1  <1>   0.0671
43    H43     17.7681   10.8067   25.5838 H       1  <1>   0.0599
44    H44     19.2645    3.2132   27.6306 H       1  <1>   0.0232
45    H45     20.0457    3.9778   26.2117 H       1  <1>   0.0232
46    H46     20.0110    4.8327   27.7970 H       1  <1>   0.0232
47    H47     16.3899    4.3370   25.5542 H       1  <1>   0.0232
48    H48     17.9282    3.6954   24.8988 H       1  <1>   0.0232
49    H49     17.1560    2.9142   26.3267 H       1  <1>   0.0232
50    H50     12.4493    6.4490   23.7267 H       1  <1>   0.1862
51    H51     14.3264    7.6545   22.3693 H       1  <1>   0.0302
52    H52     15.8087    6.7092   21.9767 H       1  <1>   0.0302
53    H53     16.3084   10.8949   27.6778 H       1  <1>   0.0338
54    H54     17.8235   10.9676   28.6495 H       1  <1>   0.0338
55    H55     14.4484    5.1405   20.6179 H       1  <1>   0.0377
56    H56     12.9662    6.0859   21.0104 H       1  <1>   0.0377
57    H57     15.9832   12.6683   25.8514 H       1  <1>   0.0620
58    H58     18.9380   13.0091   28.9600 H       1  <1>   0.0620
59    H59     13.7474    7.1880   17.1725 H       1  <1>   0.0340
60    H60     13.9720    5.5439   17.8464 H       1  <1>   0.0340
61    H61     12.4896    6.4892   18.2389 H       1  <1>   0.0340
62    H62     16.1230   15.1156   25.4501 H       1  <1>   0.0618
63    H63     19.0778   15.4564   28.5589 H       1  <1>   0.0618
64    H64      8.4397    2.2685   23.5784 H       1  <1>   0.0255
65    H65      8.7408    3.6299   24.7027 H       1  <1>   0.0255
66    H66      8.4772    3.9448   22.9487 H       1  <1>   0.0255
67    H67     10.1579    1.5946   21.9275 H       1  <1>   0.0255
68    H68     10.2100    3.2652   21.2840 H       1  <1>   0.0255
69    H69     11.7235    2.4599   21.8372 H       1  <1>   0.0255
70    H70     10.5201    1.1616   24.3387 H       1  <1>   0.0255
71    H71     12.0887    2.0232   24.2684 H       1  <1>   0.0255
72    H72     10.8388    2.5135   25.4693 H       1  <1>   0.0255
73    H73     17.6705   16.5098   26.8039 H       1  <1>   0.0618
@<TRIPOS>BOND
1     1     2     1
2     1     3     1
3     1     4     1
4     2     5     1
5     3     6     1
6     3     7     2
7     4     8     1
8     5     9     1
9     5     10    2
10    6     11    1
11    8     12    1
12    8     13    1
13    9     14    1
14    9     15    1
15    11    16    1
16    11    17    1
17    14    18    1
18    15    19    1
19    16    20    1
20    17    21    1
21    17    22    1
22    18    23    1
23    18    24    2
24    19    25    1
25    20    26    ar
26    20    27    ar
27    23    28    1
28    25    29    1
29    26    30    ar
30    27    31    ar
31    28    32    1
32    28    33    1
33    28    34    1
34    30    35    ar
35    31    35    ar
36    1     36    1
37    2     37    1
38    4     38    1
39    4     39    1
40    6     40    1
41    8     41    1
42    9     42    1
43    11    43    1
44    12    44    1
45    12    45    1
46    12    46    1
47    13    47    1
48    13    48    1
49    13    49    1
50    14    50    1
51    15    51    1
52    15    52    1
53    16    53    1
54    16    54    1
55    19    55    1
56    19    56    1
57    26    57    1
58    27    58    1
59    29    59    1
60    29    60    1
61    29    61    1
62    30    62    1
63    31    63    1
64    32    64    1
65    32    65    1
66    32    66    1
67    33    67    1
68    33    68    1
69    33    69    1
70    34    70    1
71    34    71    1
72    34    72    1
73    35    73    1
@<TRIPOS>SUBSTRUCTURE
1   ****   1     TEMP       0   ****  **** 


########## Number      : 20
########## Source num  : 5536
########## Name        : MFCD00038537
########## Description : N-ALPHA-FMOC-IM-BENZYL-L-HISTIDINE
########## Reflect     : 0
########## Energy score                             :     -28.95
##########   van der Waals component                      -23.57
##########   electrostatic component                       -5.39
########## RMSD from input orientation (A)          :      35.14

@<TRIPOS>MOLECULE
MFCD00038537
59    63    1     0     0    
SMALL
GASTEIGER
****
N-ALPHA-FMOC-IM-BENZYL-L-HISTIDINE
@<TRIPOS>ATOM
1     C1      15.0406    5.8581   26.1617 C.3     1  <1>   0.0321
2     C2      14.3349    5.3915   24.9109 C.ar    1  <1>  -0.0303
3     C3      15.6708    4.6222   26.7580 C.ar    1  <1>  -0.0303
4     C4      16.1257    6.8708   25.7987 C.3     1  <1>   0.0630
5     C5      14.5385    4.0112   24.7943 C.ar    1  <1>  -0.0138
6     C6      13.5816    6.0718   23.9468 C.ar    1  <1>  -0.0573
7     C7      15.3602    3.5368   25.9300 C.ar    1  <1>  -0.0138
8     C8      16.4453    4.4266   27.9077 C.ar    1  <1>  -0.0573
9     O9      15.8804    8.0997   26.4878 O.3     1  <1>  -0.3026
10    C10     13.9886    3.3114   23.7136 C.ar    1  <1>  -0.0537
11    C11     13.0317    5.3720   22.8661 C.ar    1  <1>  -0.0614
12    C12     15.8241    2.2558   26.2520 C.ar    1  <1>  -0.0537
13    C13     16.9091    3.1456   28.2296 C.ar    1  <1>  -0.0614
14    C14     16.7163    9.0899   26.2956 C.2     1  <1>   0.3345
15    C15     13.2352    3.9918   22.7495 C.ar    1  <1>  -0.0612
16    C16     16.5985    2.0600   27.4017 C.ar    1  <1>  -0.0612
17    N17     16.5262   10.2507   26.9165 N.am    1  <1>  -0.2626
18    O18     17.6691    8.9474   25.5472 O.2     1  <1>  -0.2946
19    C19     17.4641   11.3617   26.7010 C.3     1  <1>   0.0843
20    C20     16.8370   12.6621   27.2016 C.3     1  <1>   0.0164
21    C21     18.7428   11.0953   27.4586 C.2     1  <1>   0.0691
22    C22     17.8004   13.8035   26.9801 C.2     1  <1>   0.0376
23    O23     19.8953   11.1499   26.8383 O.co2   1  <1>  -0.5440
24    O24     18.7026   10.8293   28.6487 O.co2   1  <1>  -0.5440
25    C25     17.8781   14.6044   25.8346 C.2     1  <1>   0.0341
26    N26     18.7313   14.2278   27.8456 N.2     1  <1>  -0.2819
27    N27     18.8916   15.5186   26.0575 N.pl3   1  <1>  -0.2774
28    C28     19.4029   15.2594   27.3160 C.2     1  <1>   0.0800
29    C29     19.3409   16.5680   25.1312 C.3     1  <1>   0.0595
30    C30     18.5538   17.8319   25.3827 C.ar    1  <1>  -0.0240
31    C31     19.0199   18.7748   26.3066 C.ar    1  <1>  -0.0565
32    C32     17.3579   18.0608   24.6917 C.ar    1  <1>  -0.0565
33    C33     18.2901   19.9466   26.5397 C.ar    1  <1>  -0.0614
34    C34     16.6281   19.2326   24.9248 C.ar    1  <1>  -0.0614
35    C35     17.0942   20.1754   25.8488 C.ar    1  <1>  -0.0617
36    H36     14.3346    6.3227   26.8657 H       1  <1>   0.0418
37    H37     17.1112    6.4852   26.0985 H       1  <1>   0.0546
38    H38     16.1110    7.0611   24.7154 H       1  <1>   0.0546
39    H39     13.4240    7.1405   24.0370 H       1  <1>   0.0621
40    H40     16.6858    5.2670   28.5486 H       1  <1>   0.0621
41    H41     14.1461    2.2427   23.6234 H       1  <1>   0.0624
42    H42     12.4483    5.8988   22.1196 H       1  <1>   0.0618
43    H43     15.5838    1.4153   25.6109 H       1  <1>   0.0624
44    H44     17.5087    2.9941   29.1198 H       1  <1>   0.0618
45    H45     12.8095    3.4499   21.9128 H       1  <1>   0.0618
46    H46     16.9577    1.0681   27.6509 H       1  <1>   0.0618
47    H47     15.7451   10.3675   27.5300 H       1  <1>   0.1858
48    H48     17.6998   11.4489   25.6302 H       1  <1>   0.0607
49    H49     15.9093   12.8666   26.6469 H       1  <1>   0.0366
50    H50     16.6210   12.5821   28.2772 H       1  <1>   0.0366
51    H51     17.2605   14.5233   24.9414 H       1  <1>   0.0794
52    H52     20.2153   15.8027   27.7963 H       1  <1>   0.1008
53    H53     20.4090   16.7757   25.2925 H       1  <1>   0.0587
54    H54     19.1741   16.2455   24.0929 H       1  <1>   0.0587
55    H55     19.9459   18.5975   26.8416 H       1  <1>   0.0621
56    H56     16.9970   17.3308   23.9763 H       1  <1>   0.0621
57    H57     18.6509   20.6766   27.2552 H       1  <1>   0.0618
58    H58     15.7021   19.4099   24.3897 H       1  <1>   0.0618
59    H59     16.5292   21.0827   26.0293 H       1  <1>   0.0618
@<TRIPOS>BOND
1     1     2     1
2     1     3     1
3     1     4     1
4     2     5     ar
5     2     6     ar
6     3     7     ar
7     3     8     ar
8     4     9     1
9     5     10    ar
10    6     11    ar
11    7     12    ar
12    8     13    ar
13    9     14    1
14    10    15    ar
15    12    16    ar
16    14    17    1
17    14    18    2
18    17    19    1
19    19    20    1
20    19    21    1
21    20    22    1
22    21    23    1
23    21    24    1
24    22    25    2
25    22    26    1
26    25    27    1
27    26    28    2
28    27    29    1
29    29    30    1
30    30    31    ar
31    30    32    ar
32    31    33    ar
33    32    34    ar
34    33    35    ar
35    5     7     ar
36    11    15    ar
37    13    16    ar
38    27    28    1
39    34    35    ar
40    1     36    1
41    4     37    1
42    4     38    1
43    6     39    1
44    8     40    1
45    10    41    1
46    11    42    1
47    12    43    1
48    13    44    1
49    15    45    1
50    16    46    1
51    17    47    1
52    19    48    1
53    20    49    1
54    20    50    1
55    25    51    1
56    28    52    1
57    29    53    1
58    29    54    1
59    31    55    1
60    32    56    1
61    33    57    1
62    34    58    1
63    35    59    1
@<TRIPOS>SUBSTRUCTURE
1   ****   1     TEMP       0   ****  **** 


########## Number      : 21
########## Source num  : 1118
########## Name        : MFCD00007491
########## Description : ACID_YELLOW_65
########## Reflect     : 0
########## Energy score                             :     -28.95
##########   van der Waals component                      -19.44
##########   electrostatic component                       -9.51
########## RMSD from input orientation (A)          :      42.88

@<TRIPOS>MOLECULE
MFCD00007491
58    61    1     0     0    
SMALL
GASTEIGER
****
ACID_YELLOW_65
@<TRIPOS>ATOM
1     C1      20.2558   12.5029   26.4278 C.ar    1  <1>   0.0678
2     C2      19.9718   13.5510   27.3115 C.ar    1  <1>   0.0709
3     N3      20.6116   11.2294   26.9315 N.pl3   1  <1>  -0.2895
4     C4      20.1878   12.7150   25.0456 C.ar    1  <1>  -0.0340
5     C5      19.6197   14.8110   26.8132 C.ar    1  <1>  -0.0066
6     S6      20.0611   13.2723   29.1281 S.3     1  <1>   0.1034
7     C7      19.6943   10.2618   26.4578 C.ar    1  <1>   0.0585
8     C8      19.8358   13.9750   24.5472 C.ar    1  <1>  -0.0220
9     C9      19.5518   15.0230   25.4310 C.ar    1  <1>   0.1564
10    O10     21.3190   13.7411   29.6209 O.co2   1  <1>  -0.4084
11    O11     19.9324   11.8748   29.4029 O.co2   1  <1>  -0.4084
12    O12     18.9496   14.0192   29.8039 O.co2   1  <1>  -0.4084
13    C13     20.1068    9.3051   25.5225 C.ar    1  <1>  -0.0299
14    C14     18.3744   10.2609   26.9243 C.ar    1  <1>  -0.0299
15    N15     19.1822   16.3461   24.9076 N.pl3   1  <1>   0.0882
16    C16     19.1993    8.3476   25.0537 C.ar    1  <1>  -0.0350
17    C17     17.4669    9.3035   26.4556 C.ar    1  <1>  -0.0350
18    O18     19.1230   16.5304   23.7061 O.2     1  <1>  -0.1683
19    O19     18.9353   17.2570   25.6759 O.2     1  <1>  -0.1683
20    C20     17.8793    8.3468   25.5203 C.ar    1  <1>   0.0622
21    N21     16.9718    7.3894   25.0515 N.2     1  <1>  -0.2048
22    N22     15.7932    7.3887   25.4681 N.2     1  <1>  -0.1989
23    C23     14.8858    6.4312   24.9994 C.ar    1  <1>   0.0772
24    C24     14.7514    5.2081   25.6672 C.ar    1  <1>  -0.0177
25    C25     14.1127    6.6968   23.8629 C.ar    1  <1>  -0.0206
26    C26     13.8439    4.2507   25.1985 C.ar    1  <1>  -0.0028
27    C27     13.2052    5.7394   23.3941 C.ar    1  <1>  -0.0136
28    C28     13.0707    4.5163   24.0619 C.ar    1  <1>   0.1167
29    C29     13.6988    2.9314   25.9187 C.3     1  <1>  -0.0319
30    O30     12.1826    3.5794   23.6032 O.3     1  <1>  -0.1995
31    S31     11.3371    3.9275   22.3209 S.o2    1  <1>   0.0839
32    C32     10.2295    2.5155   21.9147 C.ar    1  <1>   0.1288
33    O33     12.2178    4.1739   21.2215 O.2     1  <1>  -0.1834
34    O34     10.5494    5.0944   22.5716 O.2     1  <1>  -0.1834
35    C35      8.9418    2.4563   22.4610 C.ar    1  <1>  -0.0224
36    C36     10.6742    1.5004   21.0592 C.ar    1  <1>  -0.0224
37    C37      8.0990    1.3819   22.1520 C.ar    1  <1>  -0.0510
38    C38      9.8315    0.4261   20.7502 C.ar    1  <1>  -0.0510
39    C39      8.5439    0.3668   21.2966 C.ar    1  <1>  -0.0531
40    H40     21.4141   11.0366   27.5477 H       1  <1>   0.1936
41    H41     20.4077   11.9036   24.3613 H       1  <1>   0.0620
42    H42     19.3998   15.6224   27.4975 H       1  <1>   0.0639
43    H43     19.7831   14.1391   23.4770 H       1  <1>   0.0628
44    H44     21.1288    9.3056   25.1613 H       1  <1>   0.0655
45    H45     18.0550   11.0016   27.6485 H       1  <1>   0.0655
46    H46     19.5187    7.6070   24.3295 H       1  <1>   0.0649
47    H47     16.4448    9.3029   26.8168 H       1  <1>   0.0649
48    H48     15.3500    5.0024   26.5473 H       1  <1>   0.0729
49    H49     14.2168    7.6439   23.3458 H       1  <1>   0.0727
50    H50     12.6065    5.9451   22.5141 H       1  <1>   0.0733
51    H51     14.3853    2.9152   26.7781 H       1  <1>   0.0291
52    H52     12.6673    2.8139   26.2821 H       1  <1>   0.0291
53    H53     13.9542    2.1038   25.2406 H       1  <1>   0.0291
54    H54      8.5973    3.2423   23.1233 H       1  <1>   0.0688
55    H55     11.6711    1.5463   20.6361 H       1  <1>   0.0688
56    H56      7.1020    1.3360   22.5750 H       1  <1>   0.0665
57    H57     10.1758   -0.3599   20.0879 H       1  <1>   0.0665
58    H58      7.8913   -0.4651   21.0573 H       1  <1>   0.0664
@<TRIPOS>BOND
1     1     2     ar
2     1     3     1
3     1     4     ar
4     2     5     ar
5     2     6     1
6     3     7     1
7     4     8     ar
8     5     9     ar
9     6     10    1
10    6     11    1
11    6     12    1
12    7     13    ar
13    7     14    ar
14    9     15    1
15    13    16    ar
16    14    17    ar
17    15    18    2
18    15    19    2
19    16    20    ar
20    20    21    1
21    21    22    2
22    22    23    1
23    23    24    ar
24    23    25    ar
25    24    26    ar
26    25    27    ar
27    26    28    ar
28    26    29    1
29    28    30    1
30    30    31    1
31    31    32    1
32    31    33    2
33    31    34    2
34    32    35    ar
35    32    36    ar
36    35    37    ar
37    36    38    ar
38    37    39    ar
39    8     9     ar
40    17    20    ar
41    27    28    ar
42    38    39    ar
43    3     40    1
44    4     41    1
45    5     42    1
46    8     43    1
47    13    44    1
48    14    45    1
49    16    46    1
50    17    47    1
51    24    48    1
52    25    49    1
53    27    50    1
54    29    51    1
55    29    52    1
56    29    53    1
57    35    54    1
58    36    55    1
59    37    56    1
60    38    57    1
61    39    58    1
@<TRIPOS>SUBSTRUCTURE
1   ****   1     TEMP       0   ****  **** 


########## Number      : 22
########## Source num  : 7662
########## Name        : MFCD00057152
########## Description : N-PHTHALOYL-GLY-DL-TRP
########## Reflect     : 0
########## Energy score                             :     -28.83
##########   van der Waals component                      -23.55
##########   electrostatic component                       -5.28
########## RMSD from input orientation (A)          :      33.83

@<TRIPOS>MOLECULE
MFCD00057152
45    48    1     0     0    
SMALL
GASTEIGER
****
N-PHTHALOYL-GLY-DL-TRP
@<TRIPOS>ATOM
1     C1      15.5159    5.2625   26.2487 C.ar    1  <1>   0.0606
2     C2      16.8178    5.1064   26.7394 C.ar    1  <1>   0.0606
3     C3      15.5453    6.4940   25.4285 C.2     1  <1>   0.2501
4     C4      14.5257    4.3308   26.5826 C.ar    1  <1>  -0.0446
5     C5      17.5922    6.2470   26.2011 C.2     1  <1>   0.2501
6     C6      17.1295    4.0187   27.5638 C.ar    1  <1>  -0.0446
7     N7      16.7782    6.9919   25.4585 N.am    1  <1>  -0.1938
8     O8      14.5903    6.9759   24.8213 O.2     1  <1>  -0.3262
9     C9      14.8374    3.2431   27.4071 C.ar    1  <1>  -0.0587
10    O10     18.7848    6.4681   26.4054 O.2     1  <1>  -0.3262
11    C11     16.1393    3.0871   27.8977 C.ar    1  <1>  -0.0587
12    C12     17.1908    8.2160   24.7568 C.3     1  <1>   0.1249
13    C13     16.9924    9.4071   25.6635 C.2     1  <1>   0.2192
14    N14     17.3014   10.6277   25.2350 N.am    1  <1>  -0.2903
15    O15     16.5450    9.2485   26.7982 O.2     1  <1>  -0.3360
16    C16     17.1082   11.7872   26.1177 C.3     1  <1>   0.0769
17    C17     17.5330   13.0601   25.3868 C.3     1  <1>  -0.0029
18    C18     17.9466   11.6178   27.3621 C.2     1  <1>   0.0683
19    C19     17.1630   14.2651   26.2180 C.2     1  <1>  -0.0303
20    O20     17.3674   11.5015   28.5313 O.co2   1  <1>  -0.5441
21    O21     19.1634   11.5891   27.2786 O.co2   1  <1>  -0.5441
22    C22     17.4962   15.5960   25.9392 C.ar    1  <1>  -0.0050
23    C23     16.4244   14.2542   27.4073 C.2     1  <1>   0.0054
24    C24     16.9589   16.3891   26.9601 C.ar    1  <1>   0.0512
25    C25     18.2148   16.1908   24.8953 C.ar    1  <1>  -0.0605
26    N26     16.3058   15.5583   27.8522 N.pl3   1  <1>  -0.3080
27    C27     17.1403   17.7771   26.9371 C.ar    1  <1>  -0.0419
28    C28     18.3963   17.5789   24.8724 C.ar    1  <1>  -0.0689
29    C29     17.8590   18.3720   25.8933 C.ar    1  <1>  -0.0673
30    H30     13.5176    4.4516   26.2027 H       1  <1>   0.0639
31    H31     18.1376    3.8978   27.9437 H       1  <1>   0.0639
32    H32     14.0707    2.5218   27.6657 H       1  <1>   0.0629
33    H33     16.3806    2.2449   28.5361 H       1  <1>   0.0629
34    H34     18.2544    8.1493   24.4842 H       1  <1>   0.0669
35    H35     16.5797    8.3514   23.8523 H       1  <1>   0.0669
36    H36     17.6651   10.7566   24.3125 H       1  <1>   0.1793
37    H37     16.0508   11.8606   26.4118 H       1  <1>   0.0598
38    H38     18.6219   13.0553   25.2317 H       1  <1>   0.0330
39    H39     17.0164   13.1238   24.4178 H       1  <1>   0.0330
40    H40     16.0146   13.3720   27.8970 H       1  <1>   0.0718
41    H41     18.6308   15.5768   24.1048 H       1  <1>   0.0581
42    H42     15.8135   15.8602   28.7050 H       1  <1>   0.1869
43    H43     16.7243   18.3912   27.7275 H       1  <1>   0.0599
44    H44     18.9528   18.0395   24.0642 H       1  <1>   0.0575
45    H45     17.9994   19.4468   25.8756 H       1  <1>   0.0576
@<TRIPOS>BOND
1     1     2     ar
2     1     3     1
3     1     4     ar
4     2     5     1
5     2     6     ar
6     3     7     1
7     3     8     2
8     4     9     ar
9     5     10    2
10    6     11    ar
11    7     12    1
12    12    13    1
13    13    14    1
14    13    15    2
15    14    16    1
16    16    17    1
17    16    18    1
18    17    19    1
19    18    20    1
20    18    21    1
21    19    22    1
22    19    23    2
23    22    24    ar
24    22    25    ar
25    23    26    1
26    24    27    ar
27    25    28    ar
28    27    29    ar
29    5     7     1
30    9     11    ar
31    24    26    1
32    28    29    ar
33    4     30    1
34    6     31    1
35    9     32    1
36    11    33    1
37    12    34    1
38    12    35    1
39    14    36    1
40    16    37    1
41    17    38    1
42    17    39    1
43    23    40    1
44    25    41    1
45    26    42    1
46    27    43    1
47    28    44    1
48    29    45    1
@<TRIPOS>SUBSTRUCTURE
1   ****   1     TEMP       0   ****  **** 


########## Number      : 23
########## Source num  : 1791
########## Name        : MFCD00012117
########## Description : LISSAMINE_GREEN_B
########## Reflect     : 0
########## Energy score                             :     -28.36
##########   van der Waals component                      -15.26
##########   electrostatic component                      -13.10
########## RMSD from input orientation (A)          :      36.45

@<TRIPOS>MOLECULE
MFCD00012117
63    66    1     0     0    
SMALL
GASTEIGER
****
LISSAMINE_GREEN_B
@<TRIPOS>ATOM
1     C1      18.0862   16.6693   24.5475 C.ar    1  <1>   0.0273
2     C2      18.3535   18.0337   24.0406 C.2     1  <1>   0.0002
3     C3      17.6398   15.6721   23.6719 C.ar    1  <1>   0.0044
4     C4      18.2798   16.3754   25.9025 C.ar    1  <1>   0.0909
5     C5      19.7016   18.3872   23.5424 C.ar    1  <1>  -0.0254
6     C6      17.3749   18.9493   24.0327 C.2     1  <1>  -0.0058
7     C7      17.3869   14.3814   24.1514 C.ar    1  <1>  -0.0028
8     C8      17.4462   15.9659   22.3167 C.ar    1  <1>  -0.0428
9     C9      18.0269   15.0847   26.3821 C.ar    1  <1>   0.0812
10    O10     18.7166   17.3512   26.7593 O.3     1  <1>  -0.3725
11    C11     20.0191   18.2028   22.1914 C.ar    1  <1>  -0.0614
12    C12     20.6592   18.9061   24.4220 C.ar    1  <1>  -0.0614
13    C13     17.6087   20.3224   23.5327 C.2     1  <1>  -0.0214
14    C14     16.0161   18.6285   24.5236 C.2     1  <1>  -0.0214
15    C15     17.5805   14.0877   25.5065 C.ar    1  <1>  -0.0266
16    C16     16.9406   13.3844   23.2758 C.ar    1  <1>  -0.0289
17    C17     16.9998   14.9689   21.4412 C.ar    1  <1>  -0.0366
18    S18     18.2813   14.6986   28.1630 S.3     1  <1>   0.1086
19    C19     21.2943   18.5371   21.7201 C.ar    1  <1>  -0.0457
20    C20     21.9343   19.2405   23.9508 C.ar    1  <1>  -0.0457
21    C21     16.6451   21.2534   23.5156 C.2     1  <1>   0.0621
22    C22     15.0427   19.5495   24.5125 C.2     1  <1>   0.0621
23    C23     16.7470   13.6782   21.9207 C.ar    1  <1>   0.0544
24    O24     17.0698   14.9444   28.8818 O.co2   1  <1>  -0.4066
25    O25     19.3226   15.5272   28.6864 O.co2   1  <1>  -0.4066
26    O26     18.6673   13.2567   28.3119 O.co2   1  <1>  -0.4066
27    C27     22.2519   19.0560   22.5998 C.ar    1  <1>   0.0348
28    C28     15.2906   20.9191   24.0095 C.2     1  <1>   0.2200
29    S29     16.1603   12.3677   20.7699 S.3     1  <1>   0.1065
30    N30     23.5407   19.3940   22.1235 N.pl3   1  <1>  -0.3240
31    N31     14.3296   21.8183   24.0018 N.2     1  <1>  -0.2434
32    O32     14.7308   12.3742   20.7293 O.co2   1  <1>  -0.4066
33    O33     16.6185   11.0924   21.2265 O.co2   1  <1>  -0.4066
34    O34     16.7008   12.6305   19.3956 O.co2   1  <1>  -0.4066
35    C35     23.5473   20.7954   21.6798 C.3     1  <1>   0.0118
36    C36     24.5237   19.2169   23.2021 C.3     1  <1>   0.0118
37    C37     12.9906   21.4673   24.4966 C.3     1  <1>   0.0857
38    C38     14.5953   23.1736   23.4983 C.3     1  <1>   0.0857
39    H39     17.6421   16.9654   21.9454 H       1  <1>   0.0673
40    H40     18.8372   18.1583   26.2732 H       1  <1>   0.1948
41    H41     19.2777   17.8011   21.5102 H       1  <1>   0.0572
42    H42     20.4133   19.0490   25.4680 H       1  <1>   0.0572
43    H43     18.5996   20.5858   23.1654 H       1  <1>   0.0691
44    H44     15.8040   17.6288   24.8997 H       1  <1>   0.0691
45    H45     17.3848   13.0882   25.8777 H       1  <1>   0.0684
46    H46     16.7449   12.3849   23.6470 H       1  <1>   0.0684
47    H47     16.8498   15.1964   20.3921 H       1  <1>   0.0677
48    H48     21.5403   18.3943   20.6741 H       1  <1>   0.0588
49    H49     22.6757   19.6422   24.6320 H       1  <1>   0.0588
50    H50     16.8581   22.2529   23.1396 H       1  <1>   0.1026
51    H51     14.0522   19.2855   24.8800 H       1  <1>   0.1026
52    H52     24.5522   21.0496   21.3113 H       1  <1>   0.0472
53    H53     22.8214   20.9343   20.8651 H       1  <1>   0.0472
54    H54     23.2968   21.4568   22.5222 H       1  <1>   0.0472
55    H55     24.5124   18.1664   23.5280 H       1  <1>   0.0472
56    H56     25.5305   19.4676   22.8369 H       1  <1>   0.0472
57    H57     24.2636   19.8596   24.0560 H       1  <1>   0.0472
58    H58     12.3344   22.3456   24.4080 H       1  <1>   0.0721
59    H59     12.5724   20.6458   23.8964 H       1  <1>   0.0721
60    H60     13.0478   21.1681   25.5536 H       1  <1>   0.0721
61    H61     15.6454   23.2369   23.1771 H       1  <1>   0.0721
62    H62     13.9442   23.3885   22.6382 H       1  <1>   0.0721
63    H63     14.4194   23.9110   24.2953 H       1  <1>   0.0721
@<TRIPOS>BOND
1     1     2     1
2     1     3     ar
3     1     4     ar
4     2     5     1
5     2     6     2
6     3     7     ar
7     3     8     ar
8     4     9     ar
9     4     10    1
10    5     11    ar
11    5     12    ar
12    6     13    1
13    6     14    1
14    7     15    ar
15    7     16    ar
16    8     17    ar
17    9     18    1
18    11    19    ar
19    12    20    ar
20    13    21    2
21    14    22    2
22    16    23    ar
23    18    24    1
24    18    25    1
25    18    26    1
26    19    27    ar
27    21    28    1
28    23    29    1
29    27    30    1
30    28    31    2
31    29    32    1
32    29    33    1
33    29    34    1
34    30    35    1
35    30    36    1
36    31    37    1
37    31    38    1
38    9     15    ar
39    17    23    ar
40    20    27    ar
41    22    28    1
42    8     39    1
43    10    40    1
44    11    41    1
45    12    42    1
46    13    43    1
47    14    44    1
48    15    45    1
49    16    46    1
50    17    47    1
51    19    48    1
52    20    49    1
53    21    50    1
54    22    51    1
55    35    52    1
56    35    53    1
57    35    54    1
58    36    55    1
59    36    56    1
60    36    57    1
61    37    58    1
62    37    59    1
63    37    60    1
64    38    61    1
65    38    62    1
66    38    63    1
@<TRIPOS>SUBSTRUCTURE
1   ****   1     TEMP       0   ****  **** 


########## Number      : 24
########## Source num  : 5545
########## Name        : MFCD00038568
########## Description : H-MET-ARG-PHE-OH
########## Reflect     : 0
########## Energy score                             :     -28.25
##########   van der Waals component                      -14.86
##########   electrostatic component                      -13.38
########## RMSD from input orientation (A)          :      32.20

@<TRIPOS>MOLECULE
MFCD00038568
64    64    1     0     0    
SMALL
GASTEIGER
****
H-MET-ARG-PHE-OH
@<TRIPOS>ATOM
1     C1      16.2478   16.9485   22.0443 C.3     1  <1>   0.1151
2     C2      16.7106   16.1371   23.2308 C.2     1  <1>   0.2186
3     N3      15.7454   16.0455   20.9989 N.am    1  <1>  -0.2822
4     C4      15.1304   17.8955   22.4795 C.3     1  <1>  -0.0179
5     N5      17.2072   16.7491   24.3020 N.am    1  <1>  -0.2903
6     O6      16.6283   14.9101   23.2064 O.2     1  <1>  -0.3360
7     C7      16.3156   16.0366   19.7974 C.2     1  <1>   0.2423
8     C8      14.6622   18.7166   21.2790 C.3     1  <1>  -0.0218
9     C9      17.6577   15.9592   25.4571 C.3     1  <1>   0.0775
10    C10     15.7995   15.1089   18.7236 C.3     1  <1>   0.0549
11    O11     17.2633   16.7842   19.5608 O.2     1  <1>  -0.3323
12    C12     13.5448   19.6635   21.7142 C.3     1  <1>   0.0577
13    C13     19.1413   16.2247   25.7082 C.3     1  <1>  -0.0011
14    C14     16.8618   16.3541   26.6780 C.2     1  <1>   0.0684
15    C15     16.6228   15.2959   17.4500 C.3     1  <1>   0.0092
16    N16     14.3894   15.4179   18.4454 N.4     1  <1>   0.2284
17    N17     13.0944   20.4535   20.5591 N.pl3   1  <1>  -0.2383
18    C18     19.6019   15.4200   26.9000 C.ar    1  <1>  -0.0450
19    O19     16.2960   15.4325   27.4173 O.co2   1  <1>  -0.5441
20    O20     16.7458   17.5314   26.9762 O.co2   1  <1>  -0.5441
21    C21     16.1004   14.3572   16.3634 C.3     1  <1>  -0.0009
22    C22     12.0998   21.2964   20.9465 C.cat   1  <1>   0.3211
23    C23     19.8957   14.0590   26.7543 C.ar    1  <1>  -0.0585
24    C24     19.7351   16.0349   28.1506 C.ar    1  <1>  -0.0585
25    S25     17.0811   14.5800   14.8465 S.3     1  <1>  -0.1639
26    N26     11.5242   22.1310   20.0401 N.pl3   1  <1>  -0.2516
27    N27     11.6931   21.3042   22.2023 N.pl3   1  <1>  -0.2516
28    C28     20.3227   13.3128   27.8592 C.ar    1  <1>  -0.0615
29    C29     20.1621   15.2888   29.2556 C.ar    1  <1>  -0.0615
30    C30     16.3626   13.4160   13.6460 C.3     1  <1>  -0.0181
31    C31     20.4559   13.9278   29.1099 C.ar    1  <1>  -0.0617
32    H32     17.0837   17.5460   21.6516 H       1  <1>   0.0664
33    H33     14.9749   15.4377   21.1912 H       1  <1>   0.1798
34    H34     14.2801   17.3156   22.8677 H       1  <1>   0.0294
35    H35     15.5029   18.5802   23.2556 H       1  <1>   0.0294
36    H36     17.2741   17.7466   24.3218 H       1  <1>   0.1793
37    H37     15.4993   19.3112   20.8844 H       1  <1>   0.0294
38    H38     14.2766   18.0467   20.4965 H       1  <1>   0.0294
39    H39     17.4976   14.8885   25.2625 H       1  <1>   0.0599
40    H40     15.8716   14.0657   19.0651 H       1  <1>   0.0966
41    H41     12.6945   19.0836   22.1023 H       1  <1>   0.0626
42    H42     13.9173   20.3482   22.4903 H       1  <1>   0.0626
43    H43     19.7283   15.9247   24.8276 H       1  <1>   0.0338
44    H44     19.2988   17.2931   25.9176 H       1  <1>   0.0338
45    H45     16.5332   16.3339   17.0971 H       1  <1>   0.0334
46    H46     17.6778   15.0575   17.6495 H       1  <1>   0.0334
47    H47     13.8532   15.2923   19.2896 H       1  <1>   0.2003
48    H48     14.3010   16.3743   18.1397 H       1  <1>   0.2003
49    H49     14.0348   14.7960   17.7358 H       1  <1>   0.2003
50    H50     13.4734   20.3801   19.6042 H       1  <1>   0.2427
51    H51     16.1925   13.3130   16.6968 H       1  <1>   0.0378
52    H52     15.0478   14.5895   16.1442 H       1  <1>   0.0378
53    H53     19.7926   13.5828   25.7859 H       1  <1>   0.0620
54    H54     19.5075   17.0887   28.2634 H       1  <1>   0.0620
55    H55     10.7709   22.7693   20.3335 H       1  <1>   0.2394
56    H56     11.8415   22.1247   19.0603 H       1  <1>   0.2394
57    H57     12.1291   20.6721   22.8887 H       1  <1>   0.2394
58    H58     10.9398   21.9425   22.4958 H       1  <1>   0.2394
59    H59     20.5502   12.2589   27.7464 H       1  <1>   0.0618
60    H60     20.2653   15.7649   30.2240 H       1  <1>   0.0618
61    H61     16.9114   13.4970   12.6961 H       1  <1>   0.0340
62    H62     16.4499   12.3865   14.0233 H       1  <1>   0.0340
63    H63     15.3052   13.6630   13.4707 H       1  <1>   0.0340
64    H64     20.7866   13.3501   29.9655 H       1  <1>   0.0618
@<TRIPOS>BOND
1     1     2     1
2     1     3     1
3     1     4     1
4     2     5     1
5     2     6     2
6     3     7     1
7     4     8     1
8     5     9     1
9     7     10    1
10    7     11    2
11    8     12    1
12    9     13    1
13    9     14    1
14    10    15    1
15    10    16    1
16    12    17    1
17    13    18    1
18    14    19    1
19    14    20    1
20    15    21    1
21    17    22    1
22    18    23    ar
23    18    24    ar
24    21    25    1
25    22    26    1
26    22    27    1
27    23    28    ar
28    24    29    ar
29    25    30    1
30    28    31    ar
31    29    31    ar
32    1     32    1
33    3     33    1
34    4     34    1
35    4     35    1
36    5     36    1
37    8     37    1
38    8     38    1
39    9     39    1
40    10    40    1
41    12    41    1
42    12    42    1
43    13    43    1
44    13    44    1
45    15    45    1
46    15    46    1
47    16    47    1
48    16    48    1
49    16    49    1
50    17    50    1
51    21    51    1
52    21    52    1
53    23    53    1
54    24    54    1
55    26    55    1
56    26    56    1
57    27    57    1
58    27    58    1
59    28    59    1
60    29    60    1
61    30    61    1
62    30    62    1
63    30    63    1
64    31    64    1
@<TRIPOS>SUBSTRUCTURE
1   ****   1     TEMP       0   ****  **** 


########## Number      : 25
########## Source num  : 8070
########## Name        : MFCD00058657
########## Description : 2'-DEOXYADENYLYL(3'->5')-2'-DEOXYGUANOSINE_AMMONIUM_SALT
########## Reflect     : 0
########## Energy score                             :     -28.16
##########   van der Waals component                      -21.30
##########   electrostatic component                       -6.87
########## RMSD from input orientation (A)          :      35.79

@<TRIPOS>MOLECULE
MFCD00058657
64    69    1     0     0    
SMALL
GASTEIGER
****
2'-DEOXYADENYLYL(3'->5')-2'-DEOXYGUANOSINE_AMMONIUM_SALT
@<TRIPOS>ATOM
1     C1      17.8929    6.1058   25.9020 C.2     1  <1>   0.1580
2     N2      19.2541    6.3499   25.8908 N.pl3   1  <1>  -0.2285
3     C3      17.7201    4.8159   26.4181 C.2     1  <1>   0.1578
4     N4      16.8233    6.8261   25.5378 N.2     1  <1>  -0.2527
5     C5      19.9178    7.5785   25.4316 C.3     1  <1>   0.1543
6     C6      19.8734    5.2199   26.3932 C.2     1  <1>   0.0887
7     N7      18.9316    4.3177   26.7008 N.2     1  <1>  -0.2635
8     C8      16.4248    4.3001   26.5447 C.2     1  <1>   0.2658
9     C9      15.5769    6.3475   25.6524 C.2     1  <1>   0.1791
10    O10     19.4297    8.6999   26.1726 O.3     1  <1>  -0.3444
11    C11     19.5395    7.8605   23.9656 C.3     1  <1>   0.0257
12    N12     15.3504    5.0795   26.1561 N.am    1  <1>  -0.2355
13    O13     16.2448    3.1699   26.9951 O.2     1  <1>  -0.3216
14    N14     14.4906    7.1407   25.2573 N.pl3   1  <1>  -0.3256
15    C15     19.7102    9.8463   25.3650 C.3     1  <1>   0.1112
16    C16     19.4194    9.3952   23.9216 C.3     1  <1>   0.0881
17    C17     18.8475   11.0420   25.7658 C.3     1  <1>   0.0842
18    O18     20.3706    9.9544   23.0120 O.3     1  <1>  -0.3890
19    O19     19.1401   12.1493   24.9094 O.3     1  <1>  -0.3181
20    P20     18.2834   13.4144   25.2704 P.3     1  <1>   0.2647
21    O21     18.6509   14.5904   24.2972 O.3     1  <1>  -0.3146
22    O22     18.5847   13.8458   26.7497 O.co2   1  <1>  -0.5105
23    O23     16.8552   13.0942   25.1346 O.co2   1  <1>  -0.5105
24    C24     17.9129   15.7794   24.5911 C.3     1  <1>   0.0994
25    C25     18.0288   16.8164   23.4585 C.3     1  <1>   0.1112
26    C26     18.4672   16.5015   25.8332 C.3     1  <1>   0.0268
27    O27     18.0704   18.0827   24.1215 O.3     1  <1>  -0.3440
28    C28     16.8503   16.7264   22.4900 C.3     1  <1>   0.0729
29    C29     18.8766   17.8814   25.2852 C.3     1  <1>   0.1564
30    O30     17.0161   15.5870   21.6420 O.3     1  <1>  -0.3924
31    N31     18.5830   18.9214   26.2819 N.pl3   1  <1>  -0.2238
32    C32     19.4887   19.8072   26.8365 C.ar    1  <1>   0.1631
33    C33     17.3491   19.1983   26.8417 C.2     1  <1>   0.0870
34    C34     18.7698   20.6095   27.7307 C.ar    1  <1>   0.1257
35    N35     20.8042   20.0072   26.6786 N.ar    1  <1>  -0.2452
36    N36     17.4900   20.2131   27.7054 N.2     1  <1>  -0.2764
37    C37     19.4687   21.6002   28.4308 C.ar    1  <1>   0.1417
38    C38     21.4420   20.9651   27.3652 C.ar    1  <1>   0.0835
39    N39     20.7848   21.7509   28.2291 N.ar    1  <1>  -0.2481
40    N40     18.7952   22.4301   29.3381 N.pl3   1  <1>  -0.3228
41    H41     21.0092    7.4824   25.5284 H       1  <1>   0.0896
42    H42     20.9469    5.0858   26.5180 H       1  <1>   0.1021
43    H43     20.3250    7.5170   23.2765 H       1  <1>   0.0339
44    H44     18.5794    7.3926   23.7030 H       1  <1>   0.0339
45    H45     14.4174    4.7292   26.2387 H       1  <1>   0.1995
46    H46     14.6528    8.0859   24.8814 H       1  <1>   0.1653
47    H47     13.5302    6.7784   25.3430 H       1  <1>   0.1653
48    H48     20.7710   10.1241   25.4512 H       1  <1>   0.0646
49    H49     18.4036    9.7022   23.6317 H       1  <1>   0.0621
50    H50     17.7829   10.7848   25.6637 H       1  <1>   0.0591
51    H51     19.0662   11.3282   26.8050 H       1  <1>   0.0591
52    H52     20.1671    9.6600   22.1320 H       1  <1>   0.2099
53    H53     16.8593   15.5146   24.7635 H       1  <1>   0.0629
54    H54     18.9523   16.6542   22.8834 H       1  <1>   0.0646
55    H55     17.6963   16.6104   26.6102 H       1  <1>   0.0340
56    H56     19.3422   15.9767   26.2440 H       1  <1>   0.0340
57    H57     15.9120   16.6171   23.0535 H       1  <1>   0.0584
58    H58     16.8101   17.6315   21.8664 H       1  <1>   0.0584
59    H59     19.9425   17.9016   25.0145 H       1  <1>   0.0901
60    H60     16.2803   15.5376   21.0431 H       1  <1>   0.2095
61    H61     16.4186   18.6786   26.6181 H       1  <1>   0.1020
62    H62     22.5068   21.1066   27.2194 H       1  <1>   0.1142
63    H63     19.3121   23.1581   29.8516 H       1  <1>   0.1748
64    H64     17.7835   22.3118   29.4911 H       1  <1>   0.1748
@<TRIPOS>BOND
1     1     2     1
2     1     3     2
3     1     4     1
4     2     5     1
5     2     6     1
6     3     7     1
7     3     8     1
8     4     9     2
9     5     10    1
10    5     11    1
11    8     12    1
12    8     13    2
13    9     14    1
14    10    15    1
15    11    16    1
16    15    17    1
17    16    18    1
18    17    19    1
19    19    20    1
20    20    21    1
21    20    22    1
22    20    23    1
23    21    24    1
24    24    25    1
25    24    26    1
26    25    27    1
27    25    28    1
28    26    29    1
29    28    30    1
30    29    31    1
31    31    32    1
32    31    33    1
33    32    34    ar
34    32    35    ar
35    33    36    2
36    34    37    ar
37    35    38    ar
38    37    39    ar
39    37    40    1
40    6     7     2
41    9     12    1
42    15    16    1
43    27    29    1
44    34    36    1
45    38    39    ar
46    5     41    1
47    6     42    1
48    11    43    1
49    11    44    1
50    12    45    1
51    14    46    1
52    14    47    1
53    15    48    1
54    16    49    1
55    17    50    1
56    17    51    1
57    18    52    1
58    24    53    1
59    25    54    1
60    26    55    1
61    26    56    1
62    28    57    1
63    28    58    1
64    29    59    1
65    30    60    1
66    33    61    1
67    38    62    1
68    40    63    1
69    40    64    1
@<TRIPOS>SUBSTRUCTURE
1   ****   1     TEMP       0   ****  **** 


########## Number      : 26
########## Source num  : 7382
########## Name        : MFCD00055742
########## Description : Z-GLY-TYR-OH
########## Reflect     : 0
########## Energy score                             :     -28.08
##########   van der Waals component                      -19.12
##########   electrostatic component                       -8.96
########## RMSD from input orientation (A)          :      34.00

@<TRIPOS>MOLECULE
MFCD00055742
46    47    1     0     0    
SMALL
GASTEIGER
****
Z-GLY-TYR-OH
@<TRIPOS>ATOM
1     C1      19.3810   15.5347   26.2702 C.ar    1  <1>  -0.0379
2     C2      18.5081   14.4251   25.7345 C.3     1  <1>   0.0012
3     C3      20.6900   15.2584   26.6827 C.ar    1  <1>  -0.0494
4     C4      18.8813   16.8398   26.3543 C.ar    1  <1>  -0.0494
5     C5      17.9414   13.6154   26.8997 C.3     1  <1>   0.0779
6     C6      21.4993   16.2873   27.1794 C.ar    1  <1>  -0.0282
7     C7      19.6906   17.8686   26.8510 C.ar    1  <1>  -0.0282
8     N8      17.0843   12.5407   26.3785 N.am    1  <1>  -0.2904
9     C9      17.1267   14.5205   27.7926 C.2     1  <1>   0.0684
10    C10     20.9996   17.5923   27.2635 C.ar    1  <1>   0.0649
11    C11     17.3774   11.2702   26.6408 C.2     1  <1>   0.2160
12    O12     17.5643   14.8274   28.9885 O.co2   1  <1>  -0.5441
13    O13     16.0609   14.9659   27.4001 O.co2   1  <1>  -0.5441
14    O14     21.7916   18.5990   27.7496 O.3     1  <1>  -0.3750
15    C15     16.4971   10.1663   26.1055 C.3     1  <1>   0.1083
16    O16     18.3655   10.9944   27.3195 O.2     1  <1>  -0.3363
17    N17     17.0305    8.8643   26.5310 N.am    1  <1>  -0.2601
18    C18     16.4120    7.7428   26.1725 C.2     1  <1>   0.3349
19    O19     16.8873    6.5826   26.5518 O.3     1  <1>  -0.2989
20    O20     15.4017    7.7947   25.4905 O.2     1  <1>  -0.2946
21    C21     16.1882    5.4043   26.1420 C.3     1  <1>   0.0773
22    C22     16.8974    4.1851   26.6815 C.ar    1  <1>  -0.0237
23    C23     16.5501    3.6715   27.9367 C.ar    1  <1>  -0.0566
24    C24     17.9020    3.5684   25.9264 C.ar    1  <1>  -0.0566
25    C25     17.2075    2.5412   28.4369 C.ar    1  <1>  -0.0614
26    C26     18.5595    2.4380   26.4265 C.ar    1  <1>  -0.0614
27    C27     18.2122    1.9244   27.6817 C.ar    1  <1>  -0.0617
28    H28     17.6739   14.8519   25.1585 H       1  <1>   0.0343
29    H29     19.1037   13.7582   25.0939 H       1  <1>   0.0343
30    H30     21.0769   14.2480   26.6175 H       1  <1>   0.0659
31    H31     17.8678   17.0538   26.0349 H       1  <1>   0.0659
32    H32     18.7635   13.1844   27.4898 H       1  <1>   0.0599
33    H33     22.5128   16.0733   27.4989 H       1  <1>   0.0678
34    H34     19.3037   18.8790   26.9162 H       1  <1>   0.0678
35    H35     16.2809   12.7650   25.8269 H       1  <1>   0.1793
36    H36     22.6404   18.2404   27.9809 H       1  <1>   0.1944
37    H37     15.4764   10.2790   26.4997 H       1  <1>   0.0634
38    H38     16.4806   10.2023   25.0062 H       1  <1>   0.0634
39    H39     17.8586    8.8217   27.0900 H       1  <1>   0.1859
40    H40     15.1618    5.4231   26.5372 H       1  <1>   0.0587
41    H41     16.1663    5.3466   25.0438 H       1  <1>   0.0587
42    H42     15.7721    4.1491   28.5214 H       1  <1>   0.0621
43    H43     18.1708    3.9660   24.9544 H       1  <1>   0.0621
44    H44     16.9387    2.1436   29.4088 H       1  <1>   0.0618
45    H45     19.3375    1.9605   25.8418 H       1  <1>   0.0618
46    H46     18.7212    1.0492   28.0689 H       1  <1>   0.0618
@<TRIPOS>BOND
1     1     2     1
2     1     3     ar
3     1     4     ar
4     2     5     1
5     3     6     ar
6     4     7     ar
7     5     8     1
8     5     9     1
9     6     10    ar
10    8     11    1
11    9     12    1
12    9     13    1
13    10    14    1
14    11    15    1
15    11    16    2
16    15    17    1
17    17    18    1
18    18    19    1
19    18    20    2
20    19    21    1
21    21    22    1
22    22    23    ar
23    22    24    ar
24    23    25    ar
25    24    26    ar
26    25    27    ar
27    7     10    ar
28    26    27    ar
29    2     28    1
30    2     29    1
31    3     30    1
32    4     31    1
33    5     32    1
34    6     33    1
35    7     34    1
36    8     35    1
37    14    36    1
38    15    37    1
39    15    38    1
40    17    39    1
41    21    40    1
42    21    41    1
43    23    42    1
44    24    43    1
45    25    44    1
46    26    45    1
47    27    46    1
@<TRIPOS>SUBSTRUCTURE
1   ****   1     TEMP       0   ****  **** 


########## Number      : 27
########## Source num  : 7962
########## Name        : MFCD00058297
########## Description : 5-ANDROSTEN-3BETA-OL-17-ONE_HEMISUCCINATE
########## Reflect     : 0
########## Energy score                             :     -28.06
##########   van der Waals component                      -17.92
##########   electrostatic component                      -10.14
########## RMSD from input orientation (A)          :      32.06

@<TRIPOS>MOLECULE
MFCD00058297
59    62    1     0     0    
SMALL
GASTEIGER
****
5-ANDROSTEN-3BETA-OL-17-ONE_HEMISUCCINATE
@<TRIPOS>ATOM
1     C1      15.0352    6.9577   23.3185 C.3     1  <1>  -0.0285
2     C2      14.2471    5.8750   24.0787 C.3     1  <1>  -0.0298
3     C3      16.2251    7.4592   24.1577 C.3     1  <1>  -0.0078
4     C4      15.5300    6.4410   21.9548 C.3     1  <1>  -0.0479
5     C5      13.0861    5.3235   23.2305 C.3     1  <1>  -0.0208
6     C6      13.7206    6.4415   25.4104 C.3     1  <1>  -0.0311
7     C7      15.8687    7.7147   25.6026 C.2     1  <1>  -0.0650
8     C8      16.7119    8.7316   23.4396 C.3     1  <1>  -0.0415
9     C9      17.3306    6.4110   24.0698 C.3     1  <1>  -0.0556
10    C10     14.3691    5.8895   21.1065 C.3     1  <1>  -0.0364
11    C11     13.5809    4.8067   21.8667 C.3     1  <1>   0.0390
12    C12     12.0842    4.2554   23.7071 C.3     1  <1>  -0.0380
13    C13     14.7422    7.2571   26.1660 C.2     1  <1>  -0.0839
14    C14     16.9126    8.4612   26.3982 C.3     1  <1>  -0.0056
15    C15     17.8385    9.4186   24.2335 C.3     1  <1>  -0.0263
16    C16     12.4168    4.0405   21.2855 C.2     1  <1>   0.1296
17    C17     14.6567    3.7437   22.0699 C.3     1  <1>  -0.0486
18    C18     11.4685    3.6989   22.4098 C.3     1  <1>   0.0167
19    C19     17.3978    9.7313   25.6755 C.3     1  <1>   0.0714
20    O20     12.2628    3.7622   20.1180 O.2     1  <1>  -0.3379
21    O21     18.5022   10.2875   26.3940 O.3     1  <1>  -0.2994
22    C22     18.3712   11.5361   26.8903 C.2     1  <1>   0.2550
23    C23     19.5091   12.1673   27.6563 C.3     1  <1>   0.0503
24    O24     17.3335   12.1546   26.7199 O.2     1  <1>  -0.2965
25    C25     19.1048   13.5711   28.1044 C.3     1  <1>  -0.0026
26    C26     20.2428   14.2023   28.8703 C.2     1  <1>   0.0445
27    O27     20.1147   15.4231   29.3556 O.co2   1  <1>  -0.5464
28    O28     21.2805   13.5839   29.0407 O.co2   1  <1>  -0.5464
29    H29     14.3686    7.7989   23.1400 H       1  <1>   0.0312
30    H30     14.9252    5.0541   24.3025 H       1  <1>   0.0310
31    H31     12.4757    6.1927   22.9945 H       1  <1>   0.0317
32    H32     16.0019    7.2666   21.4020 H       1  <1>   0.0269
33    H33     16.2580    5.6320   22.1143 H       1  <1>   0.0269
34    H34     12.8576    7.0911   25.2028 H       1  <1>   0.0310
35    H35     13.4138    5.6048   26.0551 H       1  <1>   0.0310
36    H36     17.0987    8.4651   22.4449 H       1  <1>   0.0274
37    H37     15.8749    9.4382   23.3396 H       1  <1>   0.0274
38    H38     16.9969    5.4950   24.5792 H       1  <1>   0.0238
39    H39     17.5433    6.1776   23.0161 H       1  <1>   0.0238
40    H40     18.2407    6.7835   24.5626 H       1  <1>   0.0238
41    H41     13.6795    6.7092   20.8562 H       1  <1>   0.0279
42    H42     14.7713    5.4431   20.1852 H       1  <1>   0.0279
43    H43     12.5955    3.4523   24.2582 H       1  <1>   0.0277
44    H44     11.3005    4.7021   24.3366 H       1  <1>   0.0277
45    H45     14.5556    7.4833   27.2148 H       1  <1>   0.0572
46    H46     16.4832    8.7597   27.3659 H       1  <1>   0.0333
47    H47     17.7806    7.8051   26.5593 H       1  <1>   0.0333
48    H48     18.7138    8.7536   24.2742 H       1  <1>   0.0289
49    H49     18.1084   10.3639   23.7399 H       1  <1>   0.0289
50    H50     14.2210    2.8925   22.6136 H       1  <1>   0.0243
51    H51     15.0275    3.3942   21.0952 H       1  <1>   0.0243
52    H52     15.4871    4.1585   22.6602 H       1  <1>   0.0243
53    H53     11.3569    2.6066   22.4762 H       1  <1>   0.0393
54    H54     10.4906    4.1649   22.2189 H       1  <1>   0.0393
55    H55     16.5767   10.4620   25.6328 H       1  <1>   0.0586
56    H56     19.7408   11.5627   28.5456 H       1  <1>   0.0434
57    H57     20.3971   12.2414   27.0115 H       1  <1>   0.0434
58    H58     18.8793   14.1927   27.2253 H       1  <1>   0.0319
59    H59     18.2231   13.5141   28.7596 H       1  <1>   0.0319
@<TRIPOS>BOND
1     1     2     1
2     1     3     1
3     1     4     1
4     2     5     1
5     2     6     1
6     3     7     1
7     3     8     1
8     3     9     1
9     4     10    1
10    5     11    1
11    5     12    1
12    6     13    1
13    7     14    1
14    8     15    1
15    11    16    1
16    11    17    1
17    12    18    1
18    14    19    1
19    16    20    2
20    19    21    1
21    21    22    1
22    22    23    1
23    22    24    2
24    23    25    1
25    25    26    1
26    26    27    1
27    26    28    1
28    7     13    2
29    10    11    1
30    15    19    1
31    16    18    1
32    1     29    1
33    2     30    1
34    5     31    1
35    4     32    1
36    4     33    1
37    6     34    1
38    6     35    1
39    8     36    1
40    8     37    1
41    9     38    1
42    9     39    1
43    9     40    1
44    10    41    1
45    10    42    1
46    12    43    1
47    12    44    1
48    13    45    1
49    14    46    1
50    14    47    1
51    15    48    1
52    15    49    1
53    17    50    1
54    17    51    1
55    17    52    1
56    18    53    1
57    18    54    1
58    19    55    1
59    23    56    1
60    23    57    1
61    25    58    1
62    25    59    1
@<TRIPOS>SUBSTRUCTURE
1   ****   1     TEMP       0   ****  **** 


########## Number      : 28
########## Source num  : 8911
########## Name        : MFCD00065638
########## Description : FMOC-CYS(NPYS)
########## Reflect     : 0
########## Energy score                             :     -27.97
##########   van der Waals component                      -17.97
##########   electrostatic component                      -10.00
########## RMSD from input orientation (A)          :      35.21

@<TRIPOS>MOLECULE
MFCD00065638
52    55    1     0     0    
SMALL
GASTEIGER
****
FMOC-CYS(NPYS)
@<TRIPOS>ATOM
1     C1      16.9721   18.9053   24.2632 C.3     1  <1>   0.0321
2     C2      16.6331   18.6678   22.8111 C.ar    1  <1>  -0.0303
3     C3      16.1765   20.1216   24.6728 C.ar    1  <1>  -0.0303
4     C4      16.5458   17.6998   25.0998 C.3     1  <1>   0.0630
5     C5      15.7242   19.6569   22.4166 C.ar    1  <1>  -0.0138
6     C6      17.0545   17.6981   21.8934 C.ar    1  <1>  -0.0573
7     C7      15.4425   20.5519   23.5611 C.ar    1  <1>  -0.0138
8     C8      16.0782   20.8122   25.8867 C.ar    1  <1>  -0.0573
9     O9      17.6818   17.1727   25.7900 O.3     1  <1>  -0.3026
10    C10     15.2366   19.6762   21.1043 C.ar    1  <1>  -0.0537
11    C11     16.5668   17.7176   20.5812 C.ar    1  <1>  -0.0614
12    C12     14.6101   21.6729   23.6632 C.ar    1  <1>  -0.0537
13    C13     15.2458   21.9332   25.9887 C.ar    1  <1>  -0.0614
14    C14     17.5032   16.1289   26.5612 C.2     1  <1>   0.3345
15    C15     15.6579   18.7066   20.1867 C.ar    1  <1>  -0.0612
16    C16     14.5117   22.3636   24.8770 C.ar    1  <1>  -0.0612
17    N17     18.5324   15.6062   27.2217 N.am    1  <1>  -0.2623
18    O18     16.3927   15.6363   26.6735 O.2     1  <1>  -0.2946
19    C19     18.3319   14.4349   28.0871 C.3     1  <1>   0.0874
20    C20     17.7989   13.2708   27.2532 C.3     1  <1>   0.0296
21    C21     19.6475   14.0426   28.7160 C.2     1  <1>   0.0695
22    S22     17.5506   11.8207   28.3246 S.3     1  <1>  -0.0899
23    O23     19.7749   14.0389   30.0198 O.co2   1  <1>  -0.5440
24    O24     20.5917   13.7294   28.0099 O.co2   1  <1>  -0.5440
25    S25     16.8446   10.3627   27.0846 S.3     1  <1>  -0.0392
26    C26     18.2038    9.4459   26.4179 C.ar    1  <1>   0.1337
27    C27     17.9618    8.3872   25.5344 C.ar    1  <1>   0.2003
28    N28     19.4577    9.7697   26.7621 N.ar    1  <1>  -0.2711
29    C29     19.0469    7.6710   25.0152 C.ar    1  <1>  -0.0052
30    N30     16.5862    8.0320   25.1570 N.pl3   1  <1>   0.0979
31    C31     20.5166    9.1035   26.2821 C.ar    1  <1>   0.0180
32    C32     20.3447    8.0344   25.3946 C.ar    1  <1>  -0.0311
33    O33     16.3848    7.1102   24.3884 O.2     1  <1>  -0.1663
34    O34     15.6487    8.6599   25.6131 O.2     1  <1>  -0.1663
35    H35     18.0509   19.0733   24.3965 H       1  <1>   0.0418
36    H36     15.7911   18.0068   25.8389 H       1  <1>   0.0546
37    H37     16.1330   16.9183   24.4449 H       1  <1>   0.0546
38    H38     17.7582   16.9324   22.1988 H       1  <1>   0.0621
39    H39     16.6466   20.4791   26.7475 H       1  <1>   0.0621
40    H40     14.5329   20.4420   20.7989 H       1  <1>   0.0624
41    H41     16.8931   16.9668   19.8706 H       1  <1>   0.0618
42    H42     14.0418   22.0062   22.8023 H       1  <1>   0.0624
43    H43     15.1697   22.4680   26.9285 H       1  <1>   0.0618
44    H44     15.2803   18.7215   19.1707 H       1  <1>   0.0618
45    H45     13.8671   23.2316   24.9560 H       1  <1>   0.0618
46    H46     19.4426   16.0100   27.1296 H       1  <1>   0.1858
47    H47     17.6174   14.6794   28.8869 H       1  <1>   0.0610
48    H48     16.8358   13.5472   26.7994 H       1  <1>   0.0406
49    H49     18.5235   13.0127   26.4669 H       1  <1>   0.0406
50    H50     18.8847    6.8473   24.3294 H       1  <1>   0.0687
51    H51     21.5161    9.3951   26.5839 H       1  <1>   0.0919
52    H52     21.2025    7.4967   25.0074 H       1  <1>   0.0702
@<TRIPOS>BOND
1     1     2     1
2     1     3     1
3     1     4     1
4     2     5     ar
5     2     6     ar
6     3     7     ar
7     3     8     ar
8     4     9     1
9     5     10    ar
10    6     11    ar
11    7     12    ar
12    8     13    ar
13    9     14    1
14    10    15    ar
15    12    16    ar
16    14    17    1
17    14    18    2
18    17    19    1
19    19    20    1
20    19    21    1
21    20    22    1
22    21    23    1
23    21    24    1
24    22    25    1
25    25    26    1
26    26    27    ar
27    26    28    ar
28    27    29    ar
29    27    30    1
30    28    31    ar
31    29    32    ar
32    30    33    2
33    30    34    2
34    5     7     ar
35    11    15    ar
36    13    16    ar
37    31    32    ar
38    1     35    1
39    4     36    1
40    4     37    1
41    6     38    1
42    8     39    1
43    10    40    1
44    11    41    1
45    12    42    1
46    13    43    1
47    15    44    1
48    16    45    1
49    17    46    1
50    19    47    1
51    20    48    1
52    20    49    1
53    29    50    1
54    31    51    1
55    32    52    1
@<TRIPOS>SUBSTRUCTURE
1   ****   1     TEMP       0   ****  **** 


########## Number      : 29
########## Source num  : 2939
########## Name        : MFCD00020757
########## Description : 4-(5-OXO-3-PENTADECYL-2-PYRAZOLIN-1-YL)BENZENESULFONIC_ACID,_SODIUM_SALT
########## Reflect     : 0
########## Energy score                             :     -27.91
##########   van der Waals component                      -19.85
##########   electrostatic component                       -8.06
########## RMSD from input orientation (A)          :      47.24

@<TRIPOS>MOLECULE
MFCD00020757
68    69    1     0     0    
SMALL
GASTEIGER
****
4-(5-OXO-3-PENTADECYL-2-PYRAZOLIN-1-YL)BENZENESULFONIC_ACID,_SODIUM_SALT
@<TRIPOS>ATOM
1     N1      16.6167    8.9076   26.2465 N.am    1  <1>  -0.1410
2     C2      16.7747   10.2653   26.6122 C.ar    1  <1>   0.0934
3     N3      15.3423    8.2561   26.0143 N.2     1  <1>  -0.1956
4     C4      17.6164    8.0487   26.0672 C.2     1  <1>   0.2530
5     C5      16.7974   10.6280   27.9642 C.ar    1  <1>  -0.0282
6     C6      16.9083   11.2460   25.6220 C.ar    1  <1>  -0.0282
7     C7      15.5236    6.9898   25.6887 C.2     1  <1>   0.0344
8     C8      17.0091    6.7193   25.6877 C.3     1  <1>   0.0790
9     O9      18.8158    8.2927   26.1883 O.2     1  <1>  -0.3188
10    C10     16.9537   11.9714   28.3261 C.ar    1  <1>  -0.0441
11    C11     17.0646   12.5893   25.9839 C.ar    1  <1>  -0.0441
12    C12     14.4377    5.9891   25.3733 C.3     1  <1>  -0.0108
13    C13     17.0873   12.9520   27.3359 C.ar    1  <1>   0.0443
14    C14     14.1373    6.0186   23.8754 C.3     1  <1>  -0.0464
15    S15     17.2927   14.7176   27.8114 S.3     1  <1>   0.1027
16    C16     13.0385    5.0060   23.5562 C.3     1  <1>  -0.0526
17    O17     18.6843   15.0137   27.9555 O.co2   1  <1>  -0.4079
18    O18     16.6233   14.9581   29.0520 O.co2   1  <1>  -0.4079
19    O19     16.7025   15.5941   26.7468 O.co2   1  <1>  -0.4079
20    C20     12.7381    5.0356   22.0583 C.3     1  <1>  -0.0530
21    C21     11.6394    4.0229   21.7390 C.3     1  <1>  -0.0531
22    C22     11.3390    4.0525   20.2412 C.3     1  <1>  -0.0531
23    C23     10.2402    3.0397   19.9220 C.3     1  <1>  -0.0531
24    C24      9.9398    3.0694   18.4241 C.3     1  <1>  -0.0531
25    C25      8.8410    2.0566   18.1049 C.3     1  <1>  -0.0531
26    C26      8.5406    2.0862   16.6070 C.3     1  <1>  -0.0531
27    C27      7.4418    1.0735   16.2878 C.3     1  <1>  -0.0531
28    C28      7.1414    1.1031   14.7899 C.3     1  <1>  -0.0531
29    C29      6.0426    0.0904   14.4707 C.3     1  <1>  -0.0533
30    C30      5.7422    0.1200   12.9728 C.3     1  <1>  -0.0559
31    C31      4.6449   -0.8914   12.6540 C.3     1  <1>  -0.0653
32    H32     16.6939    9.8687   28.7309 H       1  <1>   0.0644
33    H33     16.8908   10.9652   24.5751 H       1  <1>   0.0644
34    H34     17.3384    6.4024   24.6872 H       1  <1>   0.0480
35    H35     17.2562    5.9433   26.4272 H       1  <1>   0.0480
36    H36     16.9713   12.2523   29.3729 H       1  <1>   0.0627
37    H37     17.1679   13.3486   25.2172 H       1  <1>   0.0627
38    H38     14.7706    4.9779   25.6498 H       1  <1>   0.0346
39    H39     13.5217    6.2464   25.9252 H       1  <1>   0.0346
40    H40     13.7926    7.0217   23.5838 H       1  <1>   0.0271
41    H41     15.0417    5.7531   23.3083 H       1  <1>   0.0271
42    H42     13.3715    3.9947   23.8326 H       1  <1>   0.0265
43    H43     12.1224    5.2632   24.1081 H       1  <1>   0.0265
44    H44     12.3933    6.0386   21.7667 H       1  <1>   0.0265
45    H45     13.6425    4.7702   21.4912 H       1  <1>   0.0265
46    H46     11.9724    3.0116   22.0153 H       1  <1>   0.0265
47    H47     10.7233    4.2799   22.2910 H       1  <1>   0.0265
48    H48     10.9942    5.0555   19.9497 H       1  <1>   0.0265
49    H49     12.2434    3.7872   19.6741 H       1  <1>   0.0265
50    H50     10.5732    2.0285   20.1984 H       1  <1>   0.0265
51    H51      9.3241    3.2969   20.4739 H       1  <1>   0.0265
52    H52      9.5952    4.0724   18.1325 H       1  <1>   0.0265
53    H53     10.8442    2.8040   17.8570 H       1  <1>   0.0265
54    H54      9.1740    1.0454   18.3813 H       1  <1>   0.0265
55    H55      7.9249    2.3138   18.6568 H       1  <1>   0.0265
56    H56      8.1960    3.0893   16.3154 H       1  <1>   0.0265
57    H57      9.4450    1.8209   16.0399 H       1  <1>   0.0265
58    H58      7.7748    0.0622   16.5642 H       1  <1>   0.0265
59    H59      6.5257    1.3307   16.8397 H       1  <1>   0.0265
60    H60      6.7968    2.1062   14.4983 H       1  <1>   0.0265
61    H61      8.0458    0.8377   14.2227 H       1  <1>   0.0265
62    H62      6.3756   -0.9208   14.7471 H       1  <1>   0.0265
63    H63      5.1266    0.3476   15.0226 H       1  <1>   0.0265
64    H64      5.3975    1.1230   12.6811 H       1  <1>   0.0263
65    H65      6.6466   -0.1454   12.4056 H       1  <1>   0.0263
66    H66      4.4349   -0.8637   11.5746 H       1  <1>   0.0230
67    H67      4.9765   -1.9036   12.9285 H       1  <1>   0.0230
68    H68      3.7274   -0.6353   13.2040 H       1  <1>   0.0230
@<TRIPOS>BOND
1     1     2     1
2     1     3     1
3     1     4     1
4     2     5     ar
5     2     6     ar
6     3     7     2
7     4     8     1
8     4     9     2
9     5     10    ar
10    6     11    ar
11    7     12    1
12    10    13    ar
13    12    14    1
14    13    15    1
15    14    16    1
16    15    17    1
17    15    18    1
18    15    19    1
19    16    20    1
20    20    21    1
21    21    22    1
22    22    23    1
23    23    24    1
24    24    25    1
25    25    26    1
26    26    27    1
27    27    28    1
28    28    29    1
29    29    30    1
30    30    31    1
31    7     8     1
32    11    13    ar
33    5     32    1
34    6     33    1
35    8     34    1
36    8     35    1
37    10    36    1
38    11    37    1
39    12    38    1
40    12    39    1
41    14    40    1
42    14    41    1
43    16    42    1
44    16    43    1
45    20    44    1
46    20    45    1
47    21    46    1
48    21    47    1
49    22    48    1
50    22    49    1
51    23    50    1
52    23    51    1
53    24    52    1
54    24    53    1
55    25    54    1
56    25    55    1
57    26    56    1
58    26    57    1
59    27    58    1
60    27    59    1
61    28    60    1
62    28    61    1
63    29    62    1
64    29    63    1
65    30    64    1
66    30    65    1
67    31    66    1
68    31    67    1
69    31    68    1
@<TRIPOS>SUBSTRUCTURE
1   ****   1     TEMP       0   ****  **** 


########## Number      : 30
########## Source num  : 9265
########## Name        : MFCD00067535
########## Description : PONTACYL_GREEN
########## Reflect     : 0
########## Energy score                             :     -27.86
##########   van der Waals component                      -14.73
##########   electrostatic component                      -13.13
########## RMSD from input orientation (A)          :      36.34

@<TRIPOS>MOLECULE
MFCD00067535
62    65    1     0     0    
SMALL
GASTEIGER
****
PONTACYL_GREEN
@<TRIPOS>ATOM
1     C1      18.3647   18.0150   24.0461 C.2     1  <1>  -0.0038
2     C2      18.0932   16.6506   24.5509 C.ar    1  <1>  -0.0035
3     C3      19.7140   18.3651   23.5486 C.ar    1  <1>  -0.0259
4     C4      17.3891   18.9334   24.0394 C.2     1  <1>  -0.0063
5     C5      17.6440   15.6562   23.6736 C.ar    1  <1>  -0.0033
6     C6      18.2856   16.3541   25.9055 C.ar    1  <1>  -0.0330
7     C7      20.0313   18.1817   22.1974 C.ar    1  <1>  -0.0615
8     C8      20.6730   18.8798   24.4292 C.ar    1  <1>  -0.0615
9     C9      17.6271   20.3067   23.5415 C.2     1  <1>  -0.0215
10    C10     16.0291   18.6161   24.5296 C.2     1  <1>  -0.0215
11    C11     17.3871   14.3655   24.1512 C.ar    1  <1>  -0.0084
12    C12     17.4515   15.9525   22.3190 C.ar    1  <1>  -0.0471
13    C13     18.0288   15.0634   26.3831 C.ar    1  <1>   0.0509
14    C14     21.3075   18.5129   21.7269 C.ar    1  <1>  -0.0457
15    C15     21.9492   19.2110   23.9588 C.ar    1  <1>  -0.0457
16    C16     16.6663   21.2406   23.5256 C.2     1  <1>   0.0621
17    C17     15.0586   19.5400   24.5197 C.2     1  <1>   0.0621
18    C18     17.5795   14.0691   25.5059 C.ar    1  <1>  -0.0331
19    C19     16.9379   13.3710   23.2740 C.ar    1  <1>  -0.0332
20    C20     17.0023   14.9581   21.4419 C.ar    1  <1>  -0.0406
21    S21     18.2817   14.6739   28.1635 S.3     1  <1>   0.1049
22    C22     22.2665   19.0276   22.6076 C.ar    1  <1>   0.0347
23    C23     15.3106   20.9097   24.0188 C.2     1  <1>   0.2200
24    C24     16.7455   13.6675   21.9194 C.ar    1  <1>   0.0503
25    O25     16.9480   14.9476   28.9553 O.co2   1  <1>  -0.4071
26    O26     19.3254   15.4986   28.6883 O.co2   1  <1>  -0.4071
27    O27     18.6454   13.2981   28.3035 O.co2   1  <1>  -0.4071
28    N28     23.5565   19.3623   22.1320 N.pl3   1  <1>  -0.3240
29    N29     14.3524   21.8118   24.0122 N.2     1  <1>  -0.2434
30    S30     16.1550   12.3605   20.7665 S.3     1  <1>   0.1049
31    C31     23.5674   20.7644   21.6903 C.3     1  <1>   0.0118
32    C32     24.5387   19.1806   23.2105 C.3     1  <1>   0.0118
33    C33     13.0122   21.4641   24.5062 C.3     1  <1>   0.0857
34    C34     14.6222   23.1670   23.5108 C.3     1  <1>   0.0857
35    O35     14.7257   12.3713   20.7257 O.co2   1  <1>  -0.4071
36    O36     16.6092   11.0831   21.2213 O.co2   1  <1>  -0.4071
37    O37     16.6965   12.6238   19.3927 O.co2   1  <1>  -0.4071
38    H38     18.6335   17.1240   26.5847 H       1  <1>   0.0662
39    H39     19.2887   17.7832   21.5156 H       1  <1>   0.0572
40    H40     20.4273   19.0218   25.4754 H       1  <1>   0.0572
41    H41     18.6188   20.5675   23.1748 H       1  <1>   0.0691
42    H42     15.8138   17.6165   24.9041 H       1  <1>   0.0691
43    H43     17.6503   16.9519   21.9492 H       1  <1>   0.0651
44    H44     21.5532   18.3709   20.6807 H       1  <1>   0.0588
45    H45     22.6917   19.6094   24.6407 H       1  <1>   0.0588
46    H46     16.8823   22.2400   23.1511 H       1  <1>   0.1026
47    H47     14.0672   19.2785   24.8866 H       1  <1>   0.1026
48    H48     17.3806   13.0697   25.8756 H       1  <1>   0.0662
49    H49     16.7390   12.3716   23.6437 H       1  <1>   0.0662
50    H50     16.8534   15.1876   20.3930 H       1  <1>   0.0656
51    H51     24.5730   21.0162   21.3224 H       1  <1>   0.0472
52    H52     22.8420   20.9067   20.8757 H       1  <1>   0.0472
53    H53     23.3187   21.4253   22.5337 H       1  <1>   0.0472
54    H54     24.5242   18.1297   23.5348 H       1  <1>   0.0472
55    H55     25.5464   19.4290   22.8459 H       1  <1>   0.0472
56    H56     24.2803   19.8229   24.0653 H       1  <1>   0.0472
57    H57     12.3587   22.3446   24.4188 H       1  <1>   0.0721
58    H58     12.5916   20.6448   23.9047 H       1  <1>   0.0721
59    H59     13.0683   21.1632   25.5627 H       1  <1>   0.0721
60    H60     15.6726   23.2276   23.1899 H       1  <1>   0.0721
61    H61     13.9719   23.3852   22.6509 H       1  <1>   0.0721
62    H62     14.4485   23.9037   24.3089 H       1  <1>   0.0721
@<TRIPOS>BOND
1     1     2     1
2     1     3     1
3     1     4     2
4     2     5     ar
5     2     6     ar
6     3     7     ar
7     3     8     ar
8     4     9     1
9     4     10    1
10    5     11    ar
11    5     12    ar
12    6     13    ar
13    7     14    ar
14    8     15    ar
15    9     16    2
16    10    17    2
17    11    18    ar
18    11    19    ar
19    12    20    ar
20    13    21    1
21    14    22    ar
22    16    23    1
23    19    24    ar
24    21    25    1
25    21    26    1
26    21    27    1
27    22    28    1
28    23    29    2
29    24    30    1
30    28    31    1
31    28    32    1
32    29    33    1
33    29    34    1
34    30    35    1
35    30    36    1
36    30    37    1
37    13    18    ar
38    15    22    ar
39    17    23    1
40    20    24    ar
41    6     38    1
42    7     39    1
43    8     40    1
44    9     41    1
45    10    42    1
46    12    43    1
47    14    44    1
48    15    45    1
49    16    46    1
50    17    47    1
51    18    48    1
52    19    49    1
53    20    50    1
54    31    51    1
55    31    52    1
56    31    53    1
57    32    54    1
58    32    55    1
59    32    56    1
60    33    57    1
61    33    58    1
62    33    59    1
63    34    60    1
64    34    61    1
65    34    62    1
@<TRIPOS>SUBSTRUCTURE
1   ****   1     TEMP       0   ****  **** 


########## Number      : 31
########## Source num  : 2237
########## Name        : MFCD00014324
########## Description : DINONYLNAPHTHALENESULFONIC_ACID
########## Reflect     : 0
########## Energy score                             :     -27.78
##########   van der Waals component                      -19.74
##########   electrostatic component                       -8.04
########## RMSD from input orientation (A)          :      36.28

@<TRIPOS>MOLECULE
MFCD00014324
75    76    1     0     0    
SMALL
GASTEIGER
****
DINONYLNAPHTHALENESULFONIC_ACID
@<TRIPOS>ATOM
1     C1      18.1581   14.1806   25.0565 C.ar    1  <1>   0.0014
2     C2      17.5526   14.6516   23.8856 C.ar    1  <1>  -0.0130
3     C3      18.5655   15.0834   26.0459 C.ar    1  <1>   0.0554
4     C4      18.3563   12.8066   25.2383 C.ar    1  <1>  -0.0471
5     C5      17.3544   16.0256   23.7039 C.ar    1  <1>  -0.0481
6     C6      17.1451   13.7488   22.8961 C.ar    1  <1>  -0.0510
7     C7      18.3674   16.4574   25.8643 C.ar    1  <1>  -0.0399
8     S8      19.3615   14.4642   27.5850 S.3     1  <1>   0.1046
9     C9      17.9489   11.9037   24.2489 C.ar    1  <1>  -0.0442
10    C10     17.7618   16.9284   24.6932 C.ar    1  <1>  -0.0432
11    C11     17.3433   12.3748   23.0778 C.ar    1  <1>  -0.0554
12    O12     20.6724   13.6728   27.2165 O.co2   1  <1>  -0.4074
13    O13     18.4576   13.5953   28.2728 O.co2   1  <1>  -0.4074
14    O14     19.6936   15.5704   28.4281 O.co2   1  <1>  -0.4074
15    C15     18.1626   10.4218   24.4449 C.3     1  <1>  -0.0268
16    C16     17.5481   18.4103   24.4972 C.3     1  <1>  -0.0268
17    C17     16.9418    9.8184   25.1379 C.3     1  <1>  -0.0489
18    C18     16.1831   18.8066   25.0581 C.3     1  <1>  -0.0489
19    C19     17.1581    8.3189   25.3361 C.3     1  <1>  -0.0527
20    C20     15.9668   20.3061   24.8598 C.3     1  <1>  -0.0527
21    C21     15.9373    7.7154   26.0291 C.3     1  <1>  -0.0530
22    C22     14.6018   20.7025   25.4207 C.3     1  <1>  -0.0530
23    C23     16.1535    6.2158   26.2274 C.3     1  <1>  -0.0531
24    C24     14.3855   22.2020   25.2224 C.3     1  <1>  -0.0531
25    C25     14.9327    5.6124   26.9204 C.3     1  <1>  -0.0531
26    C26     13.0206   22.5982   25.7831 C.3     1  <1>  -0.0531
27    C27     15.1490    4.1128   27.1187 C.3     1  <1>  -0.0533
28    C28     12.8043   24.0979   25.5849 C.3     1  <1>  -0.0533
29    C29     13.9282    3.5095   27.8117 C.3     1  <1>  -0.0559
30    C30     11.4393   24.4941   26.1457 C.3     1  <1>  -0.0559
31    C31     14.1442    2.0118   28.0098 C.3     1  <1>  -0.0653
32    C32     11.2232   25.9917   25.9477 C.3     1  <1>  -0.0653
33    H33     18.8251   12.4417   26.1451 H       1  <1>   0.0641
34    H34     16.8855   16.3904   22.7972 H       1  <1>   0.0640
35    H35     16.6763   14.1136   21.9894 H       1  <1>   0.0638
36    H36     18.6829   17.1564   26.6304 H       1  <1>   0.0645
37    H37     17.0279   11.6757   22.3117 H       1  <1>   0.0634
38    H38     18.2964    9.9320   23.4691 H       1  <1>   0.0315
39    H39     19.0489   10.2527   25.0741 H       1  <1>   0.0315
40    H40     18.3288   18.9734   25.0295 H       1  <1>   0.0315
41    H41     17.5762   18.6525   23.4247 H       1  <1>   0.0315
42    H42     16.7997   10.2906   26.1210 H       1  <1>   0.0269
43    H43     16.0471    9.9699   24.5161 H       1  <1>   0.0269
44    H44     15.3892   18.2594   24.5287 H       1  <1>   0.0269
45    H45     16.1417   18.5801   26.1337 H       1  <1>   0.0269
46    H46     17.2920    7.8291   24.3604 H       1  <1>   0.0265
47    H47     18.0444    8.1498   25.9653 H       1  <1>   0.0265
48    H48     16.7475   20.8692   25.3921 H       1  <1>   0.0265
49    H49     15.9949   20.5485   23.7873 H       1  <1>   0.0265
50    H50     15.7951    8.1876   27.0122 H       1  <1>   0.0265
51    H51     15.0426    7.8669   25.4073 H       1  <1>   0.0265
52    H52     13.8079   20.1553   24.8913 H       1  <1>   0.0265
53    H53     14.5604   20.4760   26.4962 H       1  <1>   0.0265
54    H54     16.2874    5.7260   25.2517 H       1  <1>   0.0265
55    H55     17.0398    6.0468   26.8567 H       1  <1>   0.0265
56    H56     15.1662   22.7650   25.7548 H       1  <1>   0.0265
57    H57     14.4137   22.4443   24.1498 H       1  <1>   0.0265
58    H58     14.7905    6.0846   27.9037 H       1  <1>   0.0265
59    H59     14.0380    5.7639   26.2987 H       1  <1>   0.0265
60    H60     12.2266   22.0510   25.2538 H       1  <1>   0.0265
61    H61     12.9791   22.3718   26.8587 H       1  <1>   0.0265
62    H62     15.2828    3.6230   26.1429 H       1  <1>   0.0265
63    H63     16.0353    3.9438   27.7479 H       1  <1>   0.0265
64    H64     13.5849   24.6609   26.1173 H       1  <1>   0.0265
65    H65     12.8324   24.3402   24.5123 H       1  <1>   0.0265
66    H66     13.7860    3.9818   28.7948 H       1  <1>   0.0263
67    H67     13.0335    3.6610   27.1899 H       1  <1>   0.0263
68    H68     10.6454   23.9469   25.6164 H       1  <1>   0.0263
69    H69     11.3979   24.2676   27.2213 H       1  <1>   0.0263
70    H70     13.2615    1.5856   28.5089 H       1  <1>   0.0230
71    H71     14.2769    1.5198   27.0350 H       1  <1>   0.0230
72    H72     15.0294    1.8406   28.6399 H       1  <1>   0.0230
73    H73     10.2391   26.2684   26.3538 H       1  <1>   0.0230
74    H74     12.0022   26.5568   26.4804 H       1  <1>   0.0230
75    H75     11.2497   26.2359   24.8755 H       1  <1>   0.0230
@<TRIPOS>BOND
1     1     2     ar
2     1     3     ar
3     1     4     ar
4     2     5     ar
5     2     6     ar
6     3     7     ar
7     3     8     1
8     4     9     ar
9     5     10    ar
10    6     11    ar
11    8     12    1
12    8     13    1
13    8     14    1
14    9     15    1
15    10    16    1
16    15    17    1
17    16    18    1
18    17    19    1
19    18    20    1
20    19    21    1
21    20    22    1
22    21    23    1
23    22    24    1
24    23    25    1
25    24    26    1
26    25    27    1
27    26    28    1
28    27    29    1
29    28    30    1
30    29    31    1
31    30    32    1
32    7     10    ar
33    9     11    ar
34    4     33    1
35    5     34    1
36    6     35    1
37    7     36    1
38    11    37    1
39    15    38    1
40    15    39    1
41    16    40    1
42    16    41    1
43    17    42    1
44    17    43    1
45    18    44    1
46    18    45    1
47    19    46    1
48    19    47    1
49    20    48    1
50    20    49    1
51    21    50    1
52    21    51    1
53    22    52    1
54    22    53    1
55    23    54    1
56    23    55    1
57    24    56    1
58    24    57    1
59    25    58    1
60    25    59    1
61    26    60    1
62    26    61    1
63    27    62    1
64    27    63    1
65    28    64    1
66    28    65    1
67    29    66    1
68    29    67    1
69    30    68    1
70    30    69    1
71    31    70    1
72    31    71    1
73    31    72    1
74    32    73    1
75    32    74    1
76    32    75    1
@<TRIPOS>SUBSTRUCTURE
1   ****   1     TEMP       0   ****  **** 


########## Number      : 32
########## Source num  : 7713
########## Name        : MFCD00057452
########## Description : CYTIDINE_5'-DIPHOSPHOETHANOLAMINE_SODIUM_SALT
########## Reflect     : 0
########## Energy score                             :     -27.66
##########   van der Waals component                      -17.30
##########   electrostatic component                      -10.36
########## RMSD from input orientation (A)          :      37.99

@<TRIPOS>MOLECULE
MFCD00057452
47    48    1     0     0    
SMALL
GASTEIGER
****
CYTIDINE_5'-DIPHOSPHOETHANOLAMINE_SODIUM_SALT
@<TRIPOS>ATOM
1     C1      16.7056   20.7741   24.9516 C.3     1  <1>   0.1833
2     N2      15.5391   20.8803   24.0635 N.am    1  <1>  -0.2072
3     O3      17.0664   19.4002   25.1162 O.3     1  <1>  -0.3413
4     C4      16.3337   21.2647   26.3632 C.3     1  <1>   0.1333
5     C5      14.3606   20.2284   24.3782 C.2     1  <1>   0.3191
6     C6      15.6097   21.6331   22.9055 C.2     1  <1>   0.0224
7     C7      17.7924   19.2614   26.3402 C.3     1  <1>   0.1137
8     C8      17.2620   20.3979   27.2340 C.3     1  <1>   0.1140
9     O9      16.6136   22.6576   26.5248 O.3     1  <1>  -0.3842
10    N10     13.2924   20.3198   23.5742 N.2     1  <1>  -0.2135
11    O11     14.2923   19.5575   25.4068 O.2     1  <1>  -0.2968
12    C12     14.4866   21.7206   22.0742 C.2     1  <1>  -0.0153
13    C13     17.5699   17.8905   26.9772 C.3     1  <1>   0.0843
14    O14     18.3625   21.1941   27.6813 O.3     1  <1>  -0.3864
15    C15     13.3209   21.0391   22.4439 C.2     1  <1>   0.1048
16    O16     18.0430   16.8714   26.0927 O.3     1  <1>  -0.3179
17    N17     12.1814   21.1091   21.6302 N.pl3   1  <1>  -0.3346
18    P18     17.8424   15.4337   26.6910 P.3     1  <1>   0.2704
19    O19     18.3802   14.3644   25.6750 O.3     1  <1>  -0.2565
20    O20     18.5814   15.3223   27.9567 O.co2   1  <1>  -0.5103
21    O21     16.3536   15.1910   26.9465 O.co2   1  <1>  -0.5103
22    P22     18.2081   12.9006   26.2158 P.3     1  <1>   0.2705
23    O23     18.7632   11.8829   25.1569 O.3     1  <1>  -0.3152
24    O24     16.7829   12.6308   26.4544 O.co2   1  <1>  -0.5103
25    O25     18.9828   12.7466   27.5261 O.co2   1  <1>  -0.5103
26    C26     18.6327   10.5284   25.5961 C.3     1  <1>   0.0952
27    C27     19.1887    9.5900   24.5260 C.3     1  <1>  -0.0110
28    N28     19.0545    8.1975   24.9775 N.4     1  <1>   0.2202
29    H29     17.5452   21.3631   24.5538 H       1  <1>   0.0928
30    H30     15.2724   21.0891   26.5929 H       1  <1>   0.0670
31    H31     16.5299   22.1528   22.6429 H       1  <1>   0.0743
32    H32     18.8690   19.4063   26.1669 H       1  <1>   0.0647
33    H33     16.7168   19.9754   28.0909 H       1  <1>   0.0648
34    H34     16.0229   23.1577   25.9739 H       1  <1>   0.2101
35    H35     14.5191   22.3076   21.1575 H       1  <1>   0.0613
36    H36     18.1245   17.8251   27.9248 H       1  <1>   0.0591
37    H37     16.4965   17.7337   27.1593 H       1  <1>   0.0591
38    H38     18.0336   21.8945   28.2324 H       1  <1>   0.2100
39    H39     12.2023   21.6617   20.7612 H       1  <1>   0.1688
40    H40     11.3233   20.6080   21.9014 H       1  <1>   0.1688
41    H41     19.1995   10.3819   26.5273 H       1  <1>   0.0618
42    H42     17.5716   10.2905   25.7617 H       1  <1>   0.0618
43    H43     18.6253    9.7165   23.5898 H       1  <1>   0.0836
44    H44     20.2533    9.8079   24.3554 H       1  <1>   0.0836
45    H45     19.4231    7.5851   24.2668 H       1  <1>   0.1995
46    H46     19.5743    8.0610   25.8302 H       1  <1>   0.1995
47    H47     18.0825    7.9774   25.1285 H       1  <1>   0.1995
@<TRIPOS>BOND
1     1     2     1
2     1     3     1
3     1     4     1
4     2     5     1
5     2     6     1
6     3     7     1
7     4     8     1
8     4     9     1
9     5     10    1
10    5     11    2
11    6     12    2
12    7     13    1
13    8     14    1
14    10    15    2
15    13    16    1
16    15    17    1
17    16    18    1
18    18    19    1
19    18    20    1
20    18    21    1
21    19    22    1
22    22    23    1
23    22    24    1
24    22    25    1
25    23    26    1
26    26    27    1
27    27    28    1
28    7     8     1
29    12    15    1
30    1     29    1
31    4     30    1
32    6     31    1
33    7     32    1
34    8     33    1
35    9     34    1
36    12    35    1
37    13    36    1
38    13    37    1
39    14    38    1
40    17    39    1
41    17    40    1
42    26    41    1
43    26    42    1
44    27    43    1
45    27    44    1
46    28    45    1
47    28    46    1
48    28    47    1
@<TRIPOS>SUBSTRUCTURE
1   ****   1     TEMP       0   ****  **** 


########## Number      : 33
########## Source num  : 9530
########## Name        : MFCD00069531
########## Description : DANSYL-DL-LEUCINE_CYCLOHEXYLAMMONIUM_SALT
########## Reflect     : 0
########## Energy score                             :     -27.46
##########   van der Waals component                      -16.35
##########   electrostatic component                      -11.10
########## RMSD from input orientation (A)          :      35.18

@<TRIPOS>MOLECULE
MFCD00069531
48    49    1     0     0    
SMALL
GASTEIGER
****
DANSYL-DL-LEUCINE_CYCLOHEXYLAMMONIUM_SALT
@<TRIPOS>ATOM
1     C1      17.5843   15.8534   25.9832 C.ar    1  <1>   0.0141
2     C2      17.1375   17.1465   26.2797 C.ar    1  <1>   0.0039
3     C3      17.0443   14.7535   26.6604 C.ar    1  <1>   0.1178
4     C4      18.5715   15.6600   25.0095 C.2     1  <1>  -0.0509
5     C5      17.6777   18.2463   25.6025 C.2     1  <1>   0.0372
6     C6      16.1503   17.3399   27.2535 C.ar    1  <1>  -0.0495
7     S7      17.6316   13.0540   26.2707 S.o2    1  <1>   0.0385
8     C8      16.0571   14.9469   27.6343 C.ar    1  <1>  -0.0292
9     C9      19.1117   16.7598   24.3322 C.2     1  <1>  -0.0627
10    C10     18.6647   18.0529   24.6287 C.2     1  <1>  -0.0479
11    N11     17.2259   19.5534   25.9022 N.pl3   1  <1>  -0.3300
12    C12     15.6102   16.2401   27.9308 C.ar    1  <1>  -0.0549
13    N13     19.0981   12.7238   27.1669 N.am    1  <1>  -0.2218
14    O14     17.8960   12.9507   24.8691 O.2     1  <1>  -0.2100
15    O15     16.6255   12.1061   26.6371 O.2     1  <1>  -0.2100
16    C16     18.0509   20.1224   26.9776 C.3     1  <1>   0.0091
17    C17     17.3347   20.3965   24.7030 C.3     1  <1>   0.0091
18    C18     19.9268   13.8351   27.6555 C.3     1  <1>   0.0921
19    C19     21.3785   13.6116   27.2342 C.3     1  <1>  -0.0216
20    C20     19.8443   13.9001   29.1619 C.2     1  <1>   0.0706
21    C21     21.9603   14.9189   26.6982 C.3     1  <1>  -0.0443
22    O22     19.5163   15.0227   29.7521 O.co2   1  <1>  -0.5439
23    O23     20.0829   12.9071   29.8292 O.co2   1  <1>  -0.5439
24    C24     23.3025   14.6410   26.0274 C.3     1  <1>  -0.0626
25    C25     22.1611   15.8971   27.8521 C.3     1  <1>  -0.0626
26    H26     18.9192   14.6540   24.7789 H       1  <1>   0.0629
27    H27     15.8042   18.3412   27.4832 H       1  <1>   0.0646
28    H28     15.6390   14.0954   28.1587 H       1  <1>   0.0662
29    H29     19.8795   16.6093   23.5747 H       1  <1>   0.0610
30    H30     19.0848   18.9084   24.1018 H       1  <1>   0.0586
31    H31     14.8458   16.3898   28.6847 H       1  <1>   0.0642
32    H32     19.3723   11.7791   27.3465 H       1  <1>   0.2064
33    H33     17.6934   21.1376   27.2043 H       1  <1>   0.0466
34    H34     17.9669   19.5027   27.8827 H       1  <1>   0.0466
35    H35     19.1015   20.1761   26.6560 H       1  <1>   0.0466
36    H36     16.7149   19.9640   23.9037 H       1  <1>   0.0466
37    H37     16.9757   21.4122   24.9247 H       1  <1>   0.0466
38    H38     18.3807   20.4340   24.3645 H       1  <1>   0.0466
39    H39     19.5596   14.7853   27.2405 H       1  <1>   0.0624
40    H40     21.9726   13.2864   28.1009 H       1  <1>   0.0294
41    H41     21.4238   12.8503   26.4416 H       1  <1>   0.0294
42    H42     21.2657   15.3669   25.9724 H       1  <1>   0.0296
43    H43     23.7141   15.5865   25.6447 H       1  <1>   0.0232
44    H44     24.0055   14.2140   26.7577 H       1  <1>   0.0232
45    H45     23.1649   13.9442   25.1875 H       1  <1>   0.0232
46    H46     21.1896   16.0918   28.3297 H       1  <1>   0.0232
47    H47     22.8456   15.4640   28.5962 H       1  <1>   0.0232
48    H48     22.5703   16.8452   27.4732 H       1  <1>   0.0232
@<TRIPOS>BOND
1     1     2     ar
2     1     3     ar
3     1     4     1
4     2     5     1
5     2     6     ar
6     3     7     1
7     3     8     ar
8     4     9     2
9     5     10    2
10    5     11    1
11    6     12    ar
12    7     13    1
13    7     14    2
14    7     15    2
15    11    16    1
16    11    17    1
17    13    18    1
18    18    19    1
19    18    20    1
20    19    21    1
21    20    22    1
22    20    23    1
23    21    24    1
24    21    25    1
25    8     12    ar
26    9     10    1
27    4     26    1
28    6     27    1
29    8     28    1
30    9     29    1
31    10    30    1
32    12    31    1
33    13    32    1
34    16    33    1
35    16    34    1
36    16    35    1
37    17    36    1
38    17    37    1
39    17    38    1
40    18    39    1
41    19    40    1
42    19    41    1
43    21    42    1
44    24    43    1
45    24    44    1
46    24    45    1
47    25    46    1
48    25    47    1
49    25    48    1
@<TRIPOS>SUBSTRUCTURE
1   ****   1     TEMP       0   ****  **** 


########## Number      : 34
########## Source num  : 6512
########## Name        : MFCD00047189
########## Description : Z-GLY-TRP-OH
########## Reflect     : 0
########## Energy score                             :     -27.44
##########   van der Waals component                      -19.26
##########   electrostatic component                       -8.18
########## RMSD from input orientation (A)          :      33.55

@<TRIPOS>MOLECULE
MFCD00047189
49    51    1     0     0    
SMALL
GASTEIGER
****
Z-GLY-TRP-OH
@<TRIPOS>ATOM
1     C1      20.6463   15.4425   26.2171 C.ar    1  <1>  -0.0050
2     C2      19.2566   15.5157   26.0648 C.2     1  <1>  -0.0303
3     C3      21.0886   16.6917   26.6685 C.ar    1  <1>   0.0512
4     C4      21.5664   14.4085   26.0059 C.ar    1  <1>  -0.0605
5     C5      18.3505   14.4018   25.5976 C.3     1  <1>  -0.0029
6     C6      18.8593   16.8091   26.4242 C.2     1  <1>   0.0054
7     N7      19.9876   17.5196   26.7916 N.pl3   1  <1>  -0.3080
8     C8      22.4510   16.9070   26.9087 C.ar    1  <1>  -0.0419
9     C9      22.9287   14.6240   26.2461 C.ar    1  <1>  -0.0689
10    C10     17.8727   13.5942   26.8037 C.3     1  <1>   0.0769
11    C11     23.3710   15.8732   26.6975 C.ar    1  <1>  -0.0673
12    N12     16.9907   12.5098   26.3490 N.am    1  <1>  -0.2905
13    C13     17.1145   14.4981   27.7461 C.2     1  <1>   0.0683
14    C14     17.3118   11.2432   26.5969 C.2     1  <1>   0.2160
15    O15     17.5342   14.6618   28.9763 O.co2   1  <1>  -0.5441
16    O16     16.1110   15.0759   27.3620 O.co2   1  <1>  -0.5441
17    C17     16.4058   10.1292   26.1298 C.3     1  <1>   0.1083
18    O18     18.3469   10.9793   27.2067 O.2     1  <1>  -0.3363
19    N19     16.9782    8.8341   26.5241 N.am    1  <1>  -0.2601
20    C20     16.3456    7.7056   26.2153 C.2     1  <1>   0.3349
21    O21     16.8558    6.5514   26.5667 O.3     1  <1>  -0.2989
22    O22     15.2900    7.7455   25.6048 O.2     1  <1>  -0.2946
23    C23     16.1399    5.3652   26.2128 C.3     1  <1>   0.0773
24    C24     16.8947    4.1549   26.7080 C.ar    1  <1>  -0.0237
25    C25     16.6398    3.6459   27.9870 C.ar    1  <1>  -0.0566
26    C26     17.8498    3.5418   25.8881 C.ar    1  <1>  -0.0566
27    C27     17.3397    2.5238   28.4463 C.ar    1  <1>  -0.0614
28    C28     18.5497    2.4196   26.3474 C.ar    1  <1>  -0.0614
29    C29     18.2947    1.9107   27.6264 C.ar    1  <1>  -0.0617
30    H30     21.2240   13.4412   25.6565 H       1  <1>   0.0581
31    H31     17.4752   14.8241   25.0826 H       1  <1>   0.0330
32    H32     18.9000   13.7344   24.9174 H       1  <1>   0.0330
33    H33     17.8390   17.1898   26.4158 H       1  <1>   0.0718
34    H34     20.0050   18.5007   27.1044 H       1  <1>   0.1869
35    H35     22.7934   17.8743   27.2582 H       1  <1>   0.0599
36    H36     23.6411   13.8235   26.0825 H       1  <1>   0.0575
37    H37     18.7374   13.1733   27.3375 H       1  <1>   0.0598
38    H38     24.4258   16.0400   26.8836 H       1  <1>   0.0576
39    H39     16.1492   12.7244   25.8532 H       1  <1>   0.1793
40    H40     15.4139   10.2360   26.5932 H       1  <1>   0.0634
41    H41     16.3129   10.1587   25.0341 H       1  <1>   0.0634
42    H42     17.8434    8.8013   27.0246 H       1  <1>   0.1859
43    H43     15.1433    5.3781   26.6782 H       1  <1>   0.0587
44    H44     16.0422    5.3008   25.1190 H       1  <1>   0.0587
45    H45     15.9004    4.1206   28.6218 H       1  <1>   0.0621
46    H46     18.0473    3.9359   24.8978 H       1  <1>   0.0621
47    H47     17.1422    2.1296   29.4366 H       1  <1>   0.0618
48    H48     19.2891    1.9448   25.7126 H       1  <1>   0.0618
49    H49     18.8367    1.0419   27.9819 H       1  <1>   0.0618
@<TRIPOS>BOND
1     1     2     1
2     1     3     ar
3     1     4     ar
4     2     5     1
5     2     6     2
6     3     7     1
7     3     8     ar
8     4     9     ar
9     5     10    1
10    8     11    ar
11    10    12    1
12    10    13    1
13    12    14    1
14    13    15    1
15    13    16    1
16    14    17    1
17    14    18    2
18    17    19    1
19    19    20    1
20    20    21    1
21    20    22    2
22    21    23    1
23    23    24    1
24    24    25    ar
25    24    26    ar
26    25    27    ar
27    26    28    ar
28    27    29    ar
29    6     7     1
30    9     11    ar
31    28    29    ar
32    4     30    1
33    5     31    1
34    5     32    1
35    6     33    1
36    7     34    1
37    8     35    1
38    9     36    1
39    10    37    1
40    11    38    1
41    12    39    1
42    17    40    1
43    17    41    1
44    19    42    1
45    23    43    1
46    23    44    1
47    25    45    1
48    26    46    1
49    27    47    1
50    28    48    1
51    29    49    1
@<TRIPOS>SUBSTRUCTURE
1   ****   1     TEMP       0   ****  **** 


########## Number      : 35
########## Source num  : 5579
########## Name        : MFCD00038751
########## Description : BOC-P-AMINO-PHE(Z)-OH
########## Reflect     : 0
########## Energy score                             :     -27.42
##########   van der Waals component                      -16.16
##########   electrostatic component                      -11.26
########## RMSD from input orientation (A)          :      35.91

@<TRIPOS>MOLECULE
MFCD00038751
55    56    1     0     0    
SMALL
GASTEIGER
****
BOC-P-AMINO-PHE(Z)-OH
@<TRIPOS>ATOM
1     C1      20.6230   12.7941   26.6408 C.ar    1  <1>  -0.0524
2     C2      21.0545   14.2143   26.9184 C.3     1  <1>  -0.0031
3     C3      19.9908   12.4781   25.4324 C.ar    1  <1>  -0.0637
4     C4      20.8553   11.7935   27.5920 C.ar    1  <1>  -0.0637
5     C5      19.8467   15.0349   27.3686 C.3     1  <1>   0.0815
6     C6      19.5906   11.1614   25.1751 C.ar    1  <1>  -0.0401
7     C7      20.4552   10.4767   27.3348 C.ar    1  <1>  -0.0401
8     N8      20.2679   16.4161   27.6439 N.am    1  <1>  -0.2628
9     C9      19.2643   14.4269   28.6222 C.2     1  <1>   0.0689
10    C10     19.8229   10.1607   26.1263 C.ar    1  <1>   0.0586
11    C11     19.7306   17.4235   26.9618 C.2     1  <1>   0.3350
12    O12     18.0943   13.8389   28.5824 O.co2   1  <1>  -0.5440
13    O13     19.8832   14.4833   29.6719 O.co2   1  <1>  -0.5440
14    N14     19.4185    8.8299   25.8663 N.am    1  <1>  -0.2304
15    O15     20.1059   18.6545   27.2071 O.3     1  <1>  -0.2978
16    O16     18.8884   17.2013   26.1076 O.2     1  <1>  -0.2946
17    C17     18.2039    8.4221   26.2232 C.2     1  <1>   0.3522
18    C18     19.5004   19.7047   26.4486 C.3     1  <1>   0.0659
19    O19     17.8296    7.1901   25.9825 O.3     1  <1>  -0.2936
20    O20     17.4384    9.1955   26.7748 O.2     1  <1>  -0.2871
21    C21     20.0758   21.0476   26.8896 C.3     1  <1>  -0.0380
22    C22     19.7873   19.4911   24.9651 C.3     1  <1>  -0.0380
23    C23     17.9924   19.6962   26.6816 C.3     1  <1>  -0.0380
24    C24     16.5146    6.7973   26.3844 C.3     1  <1>   0.0784
25    C25     16.2870    5.3504   26.0168 C.ar    1  <1>  -0.0236
26    C26     16.6139    4.3374   26.9262 C.ar    1  <1>  -0.0566
27    C27     15.7493    5.0221   24.7666 C.ar    1  <1>  -0.0566
28    C28     16.4028    2.9961   26.5854 C.ar    1  <1>  -0.0614
29    C29     15.5383    3.6807   24.4258 C.ar    1  <1>  -0.0614
30    C30     15.8652    2.6677   25.3352 C.ar    1  <1>  -0.0617
31    H31     21.8102   14.2251   27.7176 H       1  <1>   0.0332
32    H32     21.4692   14.6635   26.0040 H       1  <1>   0.0332
33    H33     19.8111   13.2530   24.6959 H       1  <1>   0.0580
34    H34     21.3449   12.0382   28.5276 H       1  <1>   0.0580
35    H35     19.0771   15.0287   26.5828 H       1  <1>   0.0605
36    H36     19.1009   10.9167   24.2395 H       1  <1>   0.0601
37    H37     20.6350    9.7020   28.0713 H       1  <1>   0.0601
38    H38     20.9584   16.5982   28.3439 H       1  <1>   0.1858
39    H39     20.0460    8.1960   25.4142 H       1  <1>   0.2070
40    H40     19.6052   21.8493   26.3017 H       1  <1>   0.0255
41    H41     19.8642   21.2141   27.9561 H       1  <1>   0.0255
42    H42     21.1617   21.0659   26.7154 H       1  <1>   0.0255
43    H43     19.3184   20.3026   24.3892 H       1  <1>   0.0255
44    H44     20.8726   19.5062   24.7869 H       1  <1>   0.0255
45    H45     19.3666   18.5294   24.6364 H       1  <1>   0.0255
46    H46     17.5348   20.5065   26.0950 H       1  <1>   0.0255
47    H47     17.5680   18.7350   26.3564 H       1  <1>   0.0255
48    H48     17.7766   19.8600   27.7477 H       1  <1>   0.0255
49    H49     16.4085    6.9088   27.4736 H       1  <1>   0.0588
50    H50     15.7663    7.4173   25.8692 H       1  <1>   0.0588
51    H51     17.0303    4.5917   27.8942 H       1  <1>   0.0621
52    H52     15.4962    5.8064   24.0625 H       1  <1>   0.0621
53    H53     16.6557    2.2117   27.2896 H       1  <1>   0.0618
54    H54     15.1219    3.4265   23.4577 H       1  <1>   0.0618
55    H55     15.7019    1.6290   25.0713 H       1  <1>   0.0618
@<TRIPOS>BOND
1     1     2     1
2     1     3     ar
3     1     4     ar
4     2     5     1
5     3     6     ar
6     4     7     ar
7     5     8     1
8     5     9     1
9     6     10    ar
10    8     11    1
11    9     12    1
12    9     13    1
13    10    14    1
14    11    15    1
15    11    16    2
16    14    17    1
17    15    18    1
18    17    19    1
19    17    20    2
20    18    21    1
21    18    22    1
22    18    23    1
23    19    24    1
24    24    25    1
25    25    26    ar
26    25    27    ar
27    26    28    ar
28    27    29    ar
29    28    30    ar
30    7     10    ar
31    29    30    ar
32    2     31    1
33    2     32    1
34    3     33    1
35    4     34    1
36    5     35    1
37    6     36    1
38    7     37    1
39    8     38    1
40    14    39    1
41    21    40    1
42    21    41    1
43    21    42    1
44    22    43    1
45    22    44    1
46    22    45    1
47    23    46    1
48    23    47    1
49    23    48    1
50    24    49    1
51    24    50    1
52    26    51    1
53    27    52    1
54    28    53    1
55    29    54    1
56    30    55    1
@<TRIPOS>SUBSTRUCTURE
1   ****   1     TEMP       0   ****  **** 


########## Number      : 36
########## Source num  : 6501
########## Name        : MFCD00047024
########## Description : Z-GLY-HIS-OH
########## Reflect     : 0
########## Energy score                             :     -27.30
##########   van der Waals component                      -19.01
##########   electrostatic component                       -8.29
########## RMSD from input orientation (A)          :      33.48

@<TRIPOS>MOLECULE
MFCD00047024
42    43    1     0     0    
SMALL
GASTEIGER
****
Z-GLY-HIS-OH
@<TRIPOS>ATOM
1     C1      19.2491   15.5300   26.0756 C.2     1  <1>   0.0373
2     C2      18.3442   14.4157   25.6068 C.3     1  <1>   0.0158
3     C3      20.6387   15.4524   26.2265 C.2     1  <1>   0.0309
4     N4      18.8621   16.7658   26.4199 N.2     1  <1>  -0.2821
5     C5      17.8668   13.6062   26.8116 C.3     1  <1>   0.0798
6     N6      21.0573   16.6924   26.6738 N.pl3   1  <1>  -0.2960
7     C7      19.9309   17.4872   26.7844 C.2     1  <1>   0.0772
8     N8      16.9860   12.5214   26.3552 N.am    1  <1>  -0.2903
9     C9      17.1073   14.5081   27.7550 C.2     1  <1>   0.0686
10    C10     17.3083   11.2548   26.6016 C.2     1  <1>   0.2160
11    O11     17.5266   14.6706   28.9854 O.co2   1  <1>  -0.5441
12    O12     16.1034   15.0854   27.3713 O.co2   1  <1>  -0.5441
13    C13     16.4035   10.1405   26.1328 C.3     1  <1>   0.1083
14    O14     18.3435   10.9911   27.2114 O.2     1  <1>  -0.3363
15    N15     16.9773    8.8454   26.5257 N.am    1  <1>  -0.2601
16    C16     16.3457    7.7167   26.2153 C.2     1  <1>   0.3349
17    O17     16.8571    6.5625   26.5654 O.3     1  <1>  -0.2989
18    O18     15.2904    7.7564   25.6046 O.2     1  <1>  -0.2946
19    C19     16.1424    5.3761   26.2098 C.3     1  <1>   0.0773
20    C20     16.8984    4.1660   26.7037 C.ar    1  <1>  -0.0237
21    C21     16.6435    3.6550   27.9820 C.ar    1  <1>  -0.0566
22    C22     17.8543    3.5549   25.8835 C.ar    1  <1>  -0.0566
23    C23     17.3445    2.5330   28.4399 C.ar    1  <1>  -0.0614
24    C24     18.5552    2.4329   26.3414 C.ar    1  <1>  -0.0614
25    C25     18.3004    1.9220   27.6197 C.ar    1  <1>  -0.0617
26    H26     17.4686   14.8378   25.0920 H       1  <1>   0.0365
27    H27     18.8946   13.7498   24.9259 H       1  <1>   0.0365
28    H28     21.2674   14.5852   26.0300 H       1  <1>   0.0792
29    H29     18.7318   13.1854   27.3451 H       1  <1>   0.0600
30    H30     22.0260   16.9715   26.8849 H       1  <1>   0.1901
31    H31     19.9152   18.5253   27.1128 H       1  <1>   0.1006
32    H32     16.1444   12.7358   25.8595 H       1  <1>   0.1793
33    H33     15.4115   10.2456   26.5962 H       1  <1>   0.0634
34    H34     16.3108   10.1712   25.0372 H       1  <1>   0.0634
35    H35     17.8423    8.8129   27.0263 H       1  <1>   0.1859
36    H36     15.1457    5.3876   26.6750 H       1  <1>   0.0587
37    H37     16.0450    5.3130   25.1159 H       1  <1>   0.0587
38    H38     15.9034    4.1282   28.6171 H       1  <1>   0.0621
39    H39     18.0517    3.9505   24.8937 H       1  <1>   0.0621
40    H40     17.1470    2.1374   29.4296 H       1  <1>   0.0618
41    H41     19.2953    1.9597   25.7062 H       1  <1>   0.0618
42    H42     18.8431    1.0533   27.9743 H       1  <1>   0.0618
@<TRIPOS>BOND
1     1     2     1
2     1     3     2
3     1     4     1
4     2     5     1
5     3     6     1
6     4     7     2
7     5     8     1
8     5     9     1
9     8     10    1
10    9     11    1
11    9     12    1
12    10    13    1
13    10    14    2
14    13    15    1
15    15    16    1
16    16    17    1
17    16    18    2
18    17    19    1
19    19    20    1
20    20    21    ar
21    20    22    ar
22    21    23    ar
23    22    24    ar
24    23    25    ar
25    6     7     1
26    24    25    ar
27    2     26    1
28    2     27    1
29    3     28    1
30    5     29    1
31    6     30    1
32    7     31    1
33    8     32    1
34    13    33    1
35    13    34    1
36    15    35    1
37    19    36    1
38    19    37    1
39    21    38    1
40    22    39    1
41    23    40    1
42    24    41    1
43    25    42    1
@<TRIPOS>SUBSTRUCTURE
1   ****   1     TEMP       0   ****  **** 


########## Number      : 37
########## Source num  : 8933
########## Name        : MFCD00065685
########## Description : FMOC-TYR(2,6-DI-CL-BZL)-OH
########## Reflect     : 0
########## Energy score                             :     -27.27
##########   van der Waals component                      -21.87
##########   electrostatic component                       -5.40
########## RMSD from input orientation (A)          :      35.63

@<TRIPOS>MOLECULE
MFCD00065685
63    67    1     0     0    
SMALL
GASTEIGER
****
FMOC-TYR(2,6-DI-CL-BZL)-OH
@<TRIPOS>ATOM
1     C1      17.1465   18.7550   25.3973 C.3     1  <1>   0.0321
2     C2      15.8388   19.5076   25.3367 C.ar    1  <1>  -0.0303
3     C3      18.0868   19.6363   26.1841 C.ar    1  <1>  -0.0303
4     C4      16.9479   17.4265   26.1258 C.3     1  <1>   0.0630
5     C5      16.0075   20.7146   26.0258 C.ar    1  <1>  -0.0138
6     C6      14.6050   19.2033   24.7493 C.ar    1  <1>  -0.0573
7     C7      17.3901   20.7948   26.5477 C.ar    1  <1>  -0.0138
8     C8      19.4245   19.4755   26.5646 C.ar    1  <1>  -0.0573
9     O9      17.3331   16.3497   25.2673 O.3     1  <1>  -0.3026
10    C10     14.9422   21.6172   26.1277 C.ar    1  <1>  -0.0537
11    C11     13.5397   20.1060   24.8511 C.ar    1  <1>  -0.0614
12    C12     18.0310   21.7927   27.2916 C.ar    1  <1>  -0.0537
13    C13     20.0655   20.4733   27.3085 C.ar    1  <1>  -0.0614
14    C14     17.2291   15.1281   25.7284 C.2     1  <1>   0.3345
15    C15     13.7083   21.3129   25.5403 C.ar    1  <1>  -0.0612
16    C16     19.3688   21.6320   27.6720 C.ar    1  <1>  -0.0612
17    N17     17.5764   14.0968   24.9638 N.am    1  <1>  -0.2627
18    O18     16.8136   14.9363   26.8595 O.2     1  <1>  -0.2946
19    C19     17.4597   12.7258   25.4814 C.3     1  <1>   0.0824
20    C20     17.6237   11.7320   24.3324 C.3     1  <1>   0.0017
21    C21     18.5352   12.4842   26.5134 C.2     1  <1>   0.0690
22    C22     17.5225   10.3235   24.8670 C.ar    1  <1>  -0.0379
23    O23     18.2334   11.9115   27.6522 O.co2   1  <1>  -0.5440
24    O24     19.6853   12.8222   26.2864 O.co2   1  <1>  -0.5440
25    C25     16.2691    9.7773   25.1680 C.ar    1  <1>  -0.0494
26    C26     18.6822    9.5636   25.0616 C.ar    1  <1>  -0.0494
27    C27     16.1753    8.4713   25.6636 C.ar    1  <1>  -0.0279
28    C28     18.5883    8.2577   25.5573 C.ar    1  <1>  -0.0279
29    C29     17.3349    7.7115   25.8583 C.ar    1  <1>   0.0691
30    O30     17.2431    6.4335   26.3433 O.3     1  <1>  -0.3547
31    C31     17.1070    5.3662   25.4014 C.3     1  <1>   0.0727
32    C32     17.0231    4.0514   26.1394 C.ar    1  <1>   0.0161
33    C33     15.7776    3.5488   26.5345 C.ar    1  <1>   0.0463
34    C34     18.1907    3.3350   26.4282 C.ar    1  <1>   0.0463
35    C35     15.6999    2.3298   27.2187 C.ar    1  <1>  -0.0372
36    CL36    14.3598    4.4186   26.1838 Cl      1  <1>  -0.1011
37    C37     18.1130    2.1161   27.1124 C.ar    1  <1>  -0.0372
38    CL38    19.7031    3.9454   25.9483 Cl      1  <1>  -0.1011
39    C39     16.8675    1.6135   27.5076 C.ar    1  <1>  -0.0519
40    H40     17.5380   18.5580   24.3885 H       1  <1>   0.0418
41    H41     17.5719   17.4006   27.0312 H       1  <1>   0.0546
42    H42     15.8888   17.3044   26.3966 H       1  <1>   0.0546
43    H43     14.4745   18.2689   24.2157 H       1  <1>   0.0621
44    H44     19.9640   18.5783   26.2831 H       1  <1>   0.0621
45    H45     15.0727   22.5517   26.6612 H       1  <1>   0.0624
46    H46     12.5842   19.8704   24.3964 H       1  <1>   0.0618
47    H47     17.4916   22.6898   27.5731 H       1  <1>   0.0624
48    H48     21.1013   20.3488   27.6029 H       1  <1>   0.0618
49    H49     12.8835   22.0118   25.6191 H       1  <1>   0.0618
50    H50     19.8650   22.4046   28.2480 H       1  <1>   0.0618
51    H51     17.9171   14.2540   24.0369 H       1  <1>   0.1858
52    H52     16.4773   12.5885   25.9567 H       1  <1>   0.0605
53    H53     16.8292   11.8881   23.5879 H       1  <1>   0.0343
54    H54     18.6093   11.8644   23.8624 H       1  <1>   0.0343
55    H55     15.3712   10.3656   25.0172 H       1  <1>   0.0659
56    H56     19.6527    9.9865   24.8286 H       1  <1>   0.0659
57    H57     15.2047    8.0485   25.8967 H       1  <1>   0.0678
58    H58     19.4863    7.6694   25.7080 H       1  <1>   0.0678
59    H59     16.1882    5.5032   24.8124 H       1  <1>   0.0583
60    H60     17.9808    5.3443   24.7335 H       1  <1>   0.0583
61    H61     14.7356    1.9405   27.5247 H       1  <1>   0.0671
62    H62     19.0170    1.5615   27.3361 H       1  <1>   0.0671
63    H63     16.8072    0.6696   28.0372 H       1  <1>   0.0658
@<TRIPOS>BOND
1     1     2     1
2     1     3     1
3     1     4     1
4     2     5     ar
5     2     6     ar
6     3     7     ar
7     3     8     ar
8     4     9     1
9     5     10    ar
10    6     11    ar
11    7     12    ar
12    8     13    ar
13    9     14    1
14    10    15    ar
15    12    16    ar
16    14    17    1
17    14    18    2
18    17    19    1
19    19    20    1
20    19    21    1
21    20    22    1
22    21    23    1
23    21    24    1
24    22    25    ar
25    22    26    ar
26    25    27    ar
27    26    28    ar
28    27    29    ar
29    29    30    1
30    30    31    1
31    31    32    1
32    32    33    ar
33    32    34    ar
34    33    35    ar
35    33    36    1
36    34    37    ar
37    34    38    1
38    35    39    ar
39    5     7     ar
40    11    15    ar
41    13    16    ar
42    28    29    ar
43    37    39    ar
44    1     40    1
45    4     41    1
46    4     42    1
47    6     43    1
48    8     44    1
49    10    45    1
50    11    46    1
51    12    47    1
52    13    48    1
53    15    49    1
54    16    50    1
55    17    51    1
56    19    52    1
57    20    53    1
58    20    54    1
59    25    55    1
60    26    56    1
61    27    57    1
62    28    58    1
63    31    59    1
64    31    60    1
65    35    61    1
66    37    62    1
67    39    63    1
@<TRIPOS>SUBSTRUCTURE
1   ****   1     TEMP       0   ****  **** 


########## Number      : 38
########## Source num  : 3548
########## Name        : MFCD00025006
########## Description : 4-(N-DODECYL-3-METHYLANILINO)-1-BUTANESULFONIC_ACID,_SODIUM_SALT
########## Reflect     : 0
########## Energy score                             :     -27.22
##########   van der Waals component                      -20.55
##########   electrostatic component                       -6.68
########## RMSD from input orientation (A)          :      39.70

@<TRIPOS>MOLECULE
MFCD00025006
68    68    1     0     0    
SMALL
GASTEIGER
****
4-(N-DODECYL-3-METHYLANILINO)-1-BUTANESULFONIC_ACID,_SODIUM_SALT
@<TRIPOS>ATOM
1     N1      17.6582    8.5919   25.9450 N.pl3   1  <1>  -0.3180
2     C2      18.6695    7.9210   25.2173 C.ar    1  <1>   0.0351
3     C3      18.0207   10.0085   26.0955 C.3     1  <1>   0.0235
4     C4      16.3826    8.4867   25.2219 C.3     1  <1>   0.0234
5     C5      19.7446    7.3320   25.8935 C.ar    1  <1>  -0.0436
6     C6      18.5950    7.8463   23.8213 C.ar    1  <1>  -0.0465
7     C7      16.9286   10.7329   26.8812 C.3     1  <1>  -0.0329
8     C8      16.0058    7.0141   25.0654 C.3     1  <1>  -0.0338
9     C9      20.7452    6.6682   25.1736 C.ar    1  <1>  -0.0581
10    C10     19.5956    7.1825   23.1014 C.ar    1  <1>  -0.0693
11    C11     17.3054   12.2054   27.0377 C.3     1  <1>  -0.0393
12    C12     14.6799    6.9048   24.3139 C.3     1  <1>  -0.0513
13    C13     20.6707    6.5935   23.7776 C.ar    1  <1>  -0.0685
14    C14     21.9047    6.0328   25.9028 C.3     1  <1>  -0.0429
15    C15     16.2133   12.9299   27.8234 C.3     1  <1>   0.0335
16    C16     14.3031    5.4322   24.1574 C.3     1  <1>  -0.0530
17    S17     16.6596   14.6742   28.0088 S.3     1  <1>   0.0841
18    C18     12.9772    5.3229   23.4058 C.3     1  <1>  -0.0531
19    O19     15.6375   15.3522   28.7441 O.co2   1  <1>  -0.4046
20    O20     17.9005   14.7766   28.7121 O.co2   1  <1>  -0.4046
21    O21     16.7999   15.3012   26.6534 O.co2   1  <1>  -0.4046
22    C22     12.6005    3.8503   23.2493 C.3     1  <1>  -0.0531
23    C23     11.2746    3.7410   22.4978 C.3     1  <1>  -0.0531
24    C24     10.8978    2.2684   22.3413 C.3     1  <1>  -0.0531
25    C25      9.5719    2.1591   21.5897 C.3     1  <1>  -0.0531
26    C26      9.1951    0.6866   21.4332 C.3     1  <1>  -0.0533
27    C27      7.8692    0.5772   20.6817 C.3     1  <1>  -0.0559
28    C28      7.4930   -0.8934   20.5254 C.3     1  <1>  -0.0653
29    H29     18.9703   10.0943   26.6440 H       1  <1>   0.0508
30    H30     18.1163   10.4764   25.1047 H       1  <1>   0.0508
31    H31     15.5901    8.9988   25.7871 H       1  <1>   0.0508
32    H32     16.4817    8.9369   24.2232 H       1  <1>   0.0508
33    H33     19.8023    7.3898   26.9744 H       1  <1>   0.0589
34    H34     17.7626    8.3025   23.2977 H       1  <1>   0.0586
35    H35     15.9731   10.6654   26.3405 H       1  <1>   0.0284
36    H36     16.8270   10.2834   27.8799 H       1  <1>   0.0284
37    H37     16.7841    6.4888   24.4925 H       1  <1>   0.0284
38    H38     15.8925    6.5507   26.0565 H       1  <1>   0.0284
39    H39     19.5379    7.1247   22.0205 H       1  <1>   0.0565
40    H40     18.2550   12.2912   27.5861 H       1  <1>   0.0275
41    H41     17.4010   12.6734   26.0468 H       1  <1>   0.0275
42    H42     13.8874    7.4169   24.8792 H       1  <1>   0.0266
43    H43     14.7790    7.3550   23.3152 H       1  <1>   0.0266
44    H44     21.4455    6.0796   23.2202 H       1  <1>   0.0567
45    H45     21.7826    6.1989   26.9833 H       1  <1>   0.0270
46    H46     21.9236    4.9506   25.7066 H       1  <1>   0.0270
47    H47     22.8499    6.4899   25.5749 H       1  <1>   0.0270
48    H48     15.2577   12.8625   27.2829 H       1  <1>   0.0407
49    H49     16.1118   12.4803   28.8222 H       1  <1>   0.0407
50    H50     15.0814    4.9069   23.5845 H       1  <1>   0.0265
51    H51     14.1899    4.9688   25.1485 H       1  <1>   0.0265
52    H52     12.1847    5.8350   23.9712 H       1  <1>   0.0265
53    H53     13.0763    5.7731   22.4072 H       1  <1>   0.0265
54    H54     13.3788    3.3249   22.6765 H       1  <1>   0.0265
55    H55     12.4871    3.3869   24.2404 H       1  <1>   0.0265
56    H56     10.4820    4.2531   23.0630 H       1  <1>   0.0265
57    H57     11.3737    4.1912   21.4990 H       1  <1>   0.0265
58    H58     11.6761    1.7431   21.7684 H       1  <1>   0.0265
59    H59     10.7845    1.8050   23.3324 H       1  <1>   0.0265
60    H60      8.7793    2.6712   22.1550 H       1  <1>   0.0265
61    H61      9.6709    2.6093   20.5910 H       1  <1>   0.0265
62    H62      9.9733    0.1613   20.8603 H       1  <1>   0.0265
63    H63      9.0818    0.2231   22.4243 H       1  <1>   0.0265
64    H64      7.0766    1.0893   21.2470 H       1  <1>   0.0263
65    H65      7.9682    1.0274   19.6830 H       1  <1>   0.0263
66    H66      6.5381   -0.9632   19.9838 H       1  <1>   0.0230
67    H67      8.2694   -1.4203   19.9515 H       1  <1>   0.0230
68    H68      7.3779   -1.3585   21.5155 H       1  <1>   0.0230
@<TRIPOS>BOND
1     1     2     1
2     1     3     1
3     1     4     1
4     2     5     ar
5     2     6     ar
6     3     7     1
7     4     8     1
8     5     9     ar
9     6     10    ar
10    7     11    1
11    8     12    1
12    9     13    ar
13    9     14    1
14    11    15    1
15    12    16    1
16    15    17    1
17    16    18    1
18    17    19    1
19    17    20    1
20    17    21    1
21    18    22    1
22    22    23    1
23    23    24    1
24    24    25    1
25    25    26    1
26    26    27    1
27    27    28    1
28    10    13    ar
29    3     29    1
30    3     30    1
31    4     31    1
32    4     32    1
33    5     33    1
34    6     34    1
35    7     35    1
36    7     36    1
37    8     37    1
38    8     38    1
39    10    39    1
40    11    40    1
41    11    41    1
42    12    42    1
43    12    43    1
44    13    44    1
45    14    45    1
46    14    46    1
47    14    47    1
48    15    48    1
49    15    49    1
50    16    50    1
51    16    51    1
52    18    52    1
53    18    53    1
54    22    54    1
55    22    55    1
56    23    56    1
57    23    57    1
58    24    58    1
59    24    59    1
60    25    60    1
61    25    61    1
62    26    62    1
63    26    63    1
64    27    64    1
65    27    65    1
66    28    66    1
67    28    67    1
68    28    68    1
@<TRIPOS>SUBSTRUCTURE
1   ****   1     TEMP       0   ****  **** 


########## Number      : 39
########## Source num  : 8452
########## Name        : MFCD00063036
########## Description : S-BENZYL-N-CARBOBENZYLOXY-L-CYSTEINYL-L-TYROSINE
########## Reflect     : 0
########## Energy score                             :     -27.22
##########   van der Waals component                      -16.42
##########   electrostatic component                      -10.79
########## RMSD from input orientation (A)          :      34.69

@<TRIPOS>MOLECULE
MFCD00063036
63    65    1     0     0    
SMALL
GASTEIGER
****
S-BENZYL-N-CARBOBENZYLOXY-L-CYSTEINYL-L-TYROSINE
@<TRIPOS>ATOM
1     C1      18.0832   15.4053   25.4013 C.3     1  <1>   0.1282
2     C2      18.6909   14.5492   26.4867 C.2     1  <1>   0.2200
3     N3      17.2087   14.5784   24.5570 N.am    1  <1>  -0.2566
4     C4      17.2644   16.5280   26.0365 C.3     1  <1>   0.0269
5     N5      20.0121   14.4234   26.5728 N.am    1  <1>  -0.2902
6     O6      17.9640   13.9684   27.2911 O.2     1  <1>  -0.3360
7     C7      17.4606   14.4573   23.2568 C.2     1  <1>   0.3351
8     S8      16.5319   17.5598   24.7283 S.3     1  <1>  -0.1531
9     C9      20.6037   13.5901   27.6294 C.3     1  <1>   0.0779
10    O10     16.6814   13.7204   22.5045 O.3     1  <1>  -0.2989
11    O11     18.4174   15.0323   22.7647 O.2     1  <1>  -0.2946
12    C12     15.5934   18.8447   25.6118 C.3     1  <1>   0.0189
13    C13     22.0854   13.3653   27.3313 C.3     1  <1>   0.0012
14    C14     20.4583   14.2873   28.9610 C.2     1  <1>   0.0684
15    C15     16.9917   13.6200   21.1123 C.3     1  <1>   0.0773
16    C16     14.9374   19.7661   24.6115 C.ar    1  <1>  -0.0376
17    C17     22.6974   12.5248   28.4264 C.ar    1  <1>  -0.0379
18    O18     20.0347   13.6211   30.0064 O.co2   1  <1>  -0.5441
19    O19     20.7353   15.4710   29.0632 O.co2   1  <1>  -0.5441
20    C20     15.9776   12.7309   20.4332 C.ar    1  <1>  -0.0237
21    C21     13.6509   19.4828   24.1375 C.ar    1  <1>  -0.0578
22    C22     15.6156   20.9038   24.1582 C.ar    1  <1>  -0.0578
23    C23     22.4861   11.1410   28.4474 C.ar    1  <1>  -0.0494
24    C24     23.4759   13.1293   29.4205 C.ar    1  <1>  -0.0494
25    C25     14.8107   13.2852   19.8935 C.ar    1  <1>  -0.0566
26    C26     16.2041   11.3523   20.3434 C.ar    1  <1>  -0.0566
27    C27     13.0427   20.3372   23.2101 C.ar    1  <1>  -0.0615
28    C28     15.0074   21.7583   23.2307 C.ar    1  <1>  -0.0615
29    C29     23.0535   10.3617   29.4627 C.ar    1  <1>  -0.0282
30    C30     24.0433   12.3500   30.4357 C.ar    1  <1>  -0.0282
31    C31     13.8704   12.4609   19.2640 C.ar    1  <1>  -0.0614
32    C32     15.2638   10.5280   19.7140 C.ar    1  <1>  -0.0614
33    C33     13.7209   21.4750   22.7567 C.ar    1  <1>  -0.0617
34    C34     23.8321   10.9662   30.4568 C.ar    1  <1>   0.0649
35    C35     14.0969   11.0823   19.1742 C.ar    1  <1>  -0.0617
36    O36     24.3873   10.2037   31.4504 O.3     1  <1>  -0.3750
37    H37     18.8797   15.8525   24.7885 H       1  <1>   0.0679
38    H38     16.4244   14.1070   24.9604 H       1  <1>   0.1862
39    H39     16.4557   16.1003   26.6473 H       1  <1>   0.0405
40    H40     17.9152   17.1559   26.6626 H       1  <1>   0.0405
41    H41     20.6031   14.8956   25.9187 H       1  <1>   0.1793
42    H42     20.0817   12.6231   27.6784 H       1  <1>   0.0599
43    H43     14.8131   18.3776   26.2306 H       1  <1>   0.0425
44    H44     16.2726   19.4332   26.2459 H       1  <1>   0.0425
45    H45     22.1971   12.8374   26.3728 H       1  <1>   0.0343
46    H46     22.6085   14.3321   27.2902 H       1  <1>   0.0343
47    H47     16.9572   14.6173   20.6496 H       1  <1>   0.0587
48    H48     17.9923   13.1814   20.9838 H       1  <1>   0.0587
49    H49     13.1257   18.6019   24.4886 H       1  <1>   0.0621
50    H50     16.6118   21.1232   24.5253 H       1  <1>   0.0621
51    H51     21.8832   10.6730   27.6777 H       1  <1>   0.0659
52    H52     23.6395   14.2007   29.4042 H       1  <1>   0.0659
53    H53     14.6354   14.3527   19.9630 H       1  <1>   0.0621
54    H54     17.1076   10.9230   20.7613 H       1  <1>   0.0621
55    H55     12.0466   20.1178   22.8431 H       1  <1>   0.0618
56    H56     15.5326   22.6392   22.8797 H       1  <1>   0.0618
57    H57     22.8900    9.2903   29.4790 H       1  <1>   0.0678
58    H58     24.6461   12.8181   31.2056 H       1  <1>   0.0678
59    H59     12.9669   12.8900   18.8460 H       1  <1>   0.0618
60    H60     15.4391    9.4605   19.6445 H       1  <1>   0.0618
61    H61     13.2499   22.1365   22.0387 H       1  <1>   0.0618
62    H62     13.3689   10.4440   18.6868 H       1  <1>   0.0618
63    H63     24.1460    9.2950   31.3142 H       1  <1>   0.1944
@<TRIPOS>BOND
1     1     2     1
2     1     3     1
3     1     4     1
4     2     5     1
5     2     6     2
6     3     7     1
7     4     8     1
8     5     9     1
9     7     10    1
10    7     11    2
11    8     12    1
12    9     13    1
13    9     14    1
14    10    15    1
15    12    16    1
16    13    17    1
17    14    18    1
18    14    19    1
19    15    20    1
20    16    21    ar
21    16    22    ar
22    17    23    ar
23    17    24    ar
24    20    25    ar
25    20    26    ar
26    21    27    ar
27    22    28    ar
28    23    29    ar
29    24    30    ar
30    25    31    ar
31    26    32    ar
32    27    33    ar
33    29    34    ar
34    31    35    ar
35    34    36    1
36    28    33    ar
37    30    34    ar
38    32    35    ar
39    1     37    1
40    3     38    1
41    4     39    1
42    4     40    1
43    5     41    1
44    9     42    1
45    12    43    1
46    12    44    1
47    13    45    1
48    13    46    1
49    15    47    1
50    15    48    1
51    21    49    1
52    22    50    1
53    23    51    1
54    24    52    1
55    25    53    1
56    26    54    1
57    27    55    1
58    28    56    1
59    29    57    1
60    30    58    1
61    31    59    1
62    32    60    1
63    33    61    1
64    35    62    1
65    36    63    1
@<TRIPOS>SUBSTRUCTURE
1   ****   1     TEMP       0   ****  **** 


########## Number      : 40
########## Source num  : 5589
########## Name        : MFCD00038770
########## Description : FMOC-GLA(OTBU)2-OH
########## Reflect     : 0
########## Energy score                             :     -27.21
##########   van der Waals component                      -17.89
##########   electrostatic component                       -9.32
########## RMSD from input orientation (A)          :      36.58

@<TRIPOS>MOLECULE
MFCD00038770
72    74    1     0     0    
SMALL
GASTEIGER
****
FMOC-GLA(OTBU)2-OH
@<TRIPOS>ATOM
1     C1      16.4106   20.9047   22.5599 C.3     1  <1>   0.0321
2     C2      17.0226   21.5332   21.3309 C.ar    1  <1>  -0.0303
3     C3      14.9270   21.1656   22.4541 C.ar    1  <1>  -0.0303
4     C4      16.6745   19.3996   22.5598 C.3     1  <1>   0.0630
5     C5      15.9873   22.1057   20.5823 C.ar    1  <1>  -0.0138
6     C6      18.3443   21.6178   20.8770 C.ar    1  <1>  -0.0573
7     C7      14.6975   21.8801   21.2723 C.ar    1  <1>  -0.0138
8     C8      13.8540   20.8279   23.2875 C.ar    1  <1>  -0.0573
9     O9      17.3768   19.0387   23.7520 O.3     1  <1>  -0.3026
10    C10     16.2737   22.7628   19.3798 C.ar    1  <1>  -0.0537
11    C11     18.6306   22.2750   19.6745 C.ar    1  <1>  -0.0614
12    C12     13.3950   22.2570   20.9238 C.ar    1  <1>  -0.0537
13    C13     12.5515   21.2048   22.9391 C.ar    1  <1>  -0.0614
14    C14     17.6899   17.7783   23.9237 C.2     1  <1>   0.3345
15    C15     17.5953   22.8475   18.9258 C.ar    1  <1>  -0.0612
16    C16     12.3220   21.9193   21.7573 C.ar    1  <1>  -0.0612
17    N17     18.3432   17.3985   25.0181 N.am    1  <1>  -0.2630
18    O18     17.3823   16.9529   23.0796 O.2     1  <1>  -0.2946
19    C19     18.6945   15.9842   25.2108 C.3     1  <1>   0.0802
20    C20     19.4372   15.8198   26.5361 C.3     1  <1>   0.0056
21    C21     17.4352   15.1511   25.2328 C.2     1  <1>   0.0687
22    C22     19.7664   14.3439   26.7557 C.3     1  <1>   0.1576
23    O23     17.2393   14.2357   24.3164 O.co2   1  <1>  -0.5440
24    O24     16.6002   15.3307   26.1040 O.co2   1  <1>  -0.5440
25    C25     20.8166   14.2175   27.8332 C.2     1  <1>   0.2737
26    C26     18.5184   13.6076   27.1804 C.2     1  <1>   0.2737
27    O27     21.9681   13.6544   27.5628 O.3     1  <1>  -0.2962
28    O28     20.5929   14.6398   28.9558 O.2     1  <1>  -0.2949
29    O29     18.0717   12.6074   26.4619 O.3     1  <1>  -0.2962
30    O30     17.9262   13.9440   28.1925 O.2     1  <1>  -0.2949
31    C31     22.9315   13.5572   28.6151 C.3     1  <1>   0.0702
32    C32     17.0402   11.7885   27.0192 C.3     1  <1>   0.0702
33    C33     24.1911   12.8743   28.0901 C.3     1  <1>  -0.0372
34    C34     23.2819   14.9558   29.1149 C.3     1  <1>  -0.0372
35    C35     22.3496   12.7377   29.7633 C.3     1  <1>  -0.0372
36    C36     16.7667   10.6109   26.0879 C.3     1  <1>  -0.0372
37    C37     17.4859   11.2663   28.3821 C.3     1  <1>  -0.0372
38    C38     15.7674   12.6144   27.1823 C.3     1  <1>  -0.0372
39    H39     16.8262   21.3436   23.4789 H       1  <1>   0.0418
40    H40     15.7202   18.8536   22.5298 H       1  <1>   0.0546
41    H41     17.2892   19.1288   21.6888 H       1  <1>   0.0546
42    H42     19.1459   21.1746   21.4567 H       1  <1>   0.0621
43    H43     14.0317   20.2745   24.2025 H       1  <1>   0.0621
44    H44     15.4720   23.2060   18.8001 H       1  <1>   0.0624
45    H45     19.6540   22.3406   19.3230 H       1  <1>   0.0618
46    H46     13.2173   22.8102   20.0087 H       1  <1>   0.0624
47    H47     11.7207   20.9433   23.5843 H       1  <1>   0.0618
48    H48     17.8170   23.3563   17.9947 H       1  <1>   0.0618
49    H49     11.3135   22.2112   21.4875 H       1  <1>   0.0618
50    H50     18.5954   18.0751   25.7100 H       1  <1>   0.1858
51    H51     19.3304   15.6410   24.3814 H       1  <1>   0.0603
52    H52     20.3750   16.3940   26.5119 H       1  <1>   0.0314
53    H53     18.8040   16.1704   27.3644 H       1  <1>   0.0314
54    H54     20.1366   13.9006   25.8195 H       1  <1>   0.0641
55    H55     24.9264   12.8036   28.9052 H       1  <1>   0.0255
56    H56     23.9491   11.8610   27.7373 H       1  <1>   0.0255
57    H57     24.6230   13.4644   27.2685 H       1  <1>   0.0255
58    H58     24.0229   14.8719   29.9235 H       1  <1>   0.0255
59    H59     23.7119   15.5502   28.2953 H       1  <1>   0.0255
60    H60     22.3808   15.4514   29.5049 H       1  <1>   0.0255
61    H61     23.0965   12.6679   30.5679 H       1  <1>   0.0255
62    H62     21.4465   13.2288   30.1546 H       1  <1>   0.0255
63    H63     22.1039   11.7241   29.4139 H       1  <1>   0.0255
64    H64     15.9728    9.9867   26.5237 H       1  <1>   0.0255
65    H65     16.4347   10.9786   25.1058 H       1  <1>   0.0255
66    H66     17.6770   10.0042   25.9731 H       1  <1>   0.0255
67    H67     16.6874   10.6379   28.8034 H       1  <1>   0.0255
68    H68     18.3976   10.6610   28.2720 H       1  <1>   0.0255
69    H69     17.6753   12.1091   29.0631 H       1  <1>   0.0255
70    H70     14.9798   11.9775   27.6112 H       1  <1>   0.0255
71    H71     15.9533   13.4599   27.8607 H       1  <1>   0.0255
72    H72     15.4334   12.9862   26.2024 H       1  <1>   0.0255
@<TRIPOS>BOND
1     1     2     1
2     1     3     1
3     1     4     1
4     2     5     ar
5     2     6     ar
6     3     7     ar
7     3     8     ar
8     4     9     1
9     5     10    ar
10    6     11    ar
11    7     12    ar
12    8     13    ar
13    9     14    1
14    10    15    ar
15    12    16    ar
16    14    17    1
17    14    18    2
18    17    19    1
19    19    20    1
20    19    21    1
21    20    22    1
22    21    23    1
23    21    24    1
24    22    25    1
25    22    26    1
26    25    27    1
27    25    28    2
28    26    29    1
29    26    30    2
30    27    31    1
31    29    32    1
32    31    33    1
33    31    34    1
34    31    35    1
35    32    36    1
36    32    37    1
37    32    38    1
38    5     7     ar
39    11    15    ar
40    13    16    ar
41    1     39    1
42    4     40    1
43    4     41    1
44    6     42    1
45    8     43    1
46    10    44    1
47    11    45    1
48    12    46    1
49    13    47    1
50    15    48    1
51    16    49    1
52    17    50    1
53    19    51    1
54    20    52    1
55    20    53    1
56    22    54    1
57    33    55    1
58    33    56    1
59    33    57    1
60    34    58    1
61    34    59    1
62    34    60    1
63    35    61    1
64    35    62    1
65    35    63    1
66    36    64    1
67    36    65    1
68    36    66    1
69    37    67    1
70    37    68    1
71    37    69    1
72    38    70    1
73    38    71    1
74    38    72    1
@<TRIPOS>SUBSTRUCTURE
1   ****   1     TEMP       0   ****  **** 


########## Number      : 41
########## Source num  : 5224
########## Name        : MFCD00037264
########## Description : Z-GLY-PHE-OH
########## Reflect     : 0
########## Energy score                             :     -27.17
##########   van der Waals component                      -18.76
##########   electrostatic component                       -8.40
########## RMSD from input orientation (A)          :      33.53

@<TRIPOS>MOLECULE
MFCD00037264
45    46    1     0     0    
SMALL
GASTEIGER
****
Z-GLY-PHE-OH
@<TRIPOS>ATOM
1     C1      19.3811   15.5348   26.2702 C.ar    1  <1>  -0.0450
2     C2      18.5082   14.4252   25.7345 C.3     1  <1>  -0.0011
3     C3      20.6901   15.2584   26.6827 C.ar    1  <1>  -0.0585
4     C4      18.8813   16.8398   26.3544 C.ar    1  <1>  -0.0585
5     C5      17.9413   13.6154   26.8997 C.3     1  <1>   0.0775
6     C6      21.4994   16.2872   27.1795 C.ar    1  <1>  -0.0615
7     C7      19.6907   17.8685   26.8510 C.ar    1  <1>  -0.0615
8     N8      17.0844   12.5407   26.3785 N.am    1  <1>  -0.2905
9     C9      17.1267   14.5205   27.7926 C.2     1  <1>   0.0684
10    C10     20.9997   17.5922   27.2636 C.ar    1  <1>  -0.0617
11    C11     17.3775   11.2702   26.6408 C.2     1  <1>   0.2160
12    O12     17.5644   14.8275   28.9885 O.co2   1  <1>  -0.5441
13    O13     16.0609   14.9660   27.4001 O.co2   1  <1>  -0.5441
14    C14     16.4972   10.1662   26.1054 C.3     1  <1>   0.1083
15    O15     18.3655   10.9944   27.3194 O.2     1  <1>  -0.3363
16    N16     17.0307    8.8643   26.5310 N.am    1  <1>  -0.2601
17    C17     16.4119    7.7428   26.1725 C.2     1  <1>   0.3349
18    O18     16.8874    6.5826   26.5517 O.3     1  <1>  -0.2989
19    O19     15.4017    7.7947   25.4905 O.2     1  <1>  -0.2946
20    C20     16.1882    5.4043   26.1420 C.3     1  <1>   0.0773
21    C21     16.8973    4.1851   26.6814 C.ar    1  <1>  -0.0237
22    C22     16.5500    3.6715   27.9367 C.ar    1  <1>  -0.0566
23    C23     17.9020    3.5684   25.9264 C.ar    1  <1>  -0.0566
24    C24     17.2075    2.5412   28.4368 C.ar    1  <1>  -0.0614
25    C25     18.5595    2.4380   26.4264 C.ar    1  <1>  -0.0614
26    C26     18.2122    1.9245   27.6817 C.ar    1  <1>  -0.0617
27    H27     17.6739   14.8519   25.1584 H       1  <1>   0.0338
28    H28     19.1038   13.7582   25.0939 H       1  <1>   0.0338
29    H29     21.0770   14.2478   26.6176 H       1  <1>   0.0620
30    H30     17.8678   17.0538   26.0350 H       1  <1>   0.0620
31    H31     18.7635   13.1844   27.4898 H       1  <1>   0.0599
32    H32     22.5129   16.0732   27.4989 H       1  <1>   0.0618
33    H33     19.3038   18.8791   26.9162 H       1  <1>   0.0618
34    H34     16.2810   12.7648   25.8269 H       1  <1>   0.1793
35    H35     21.6263   18.3888   27.6482 H       1  <1>   0.0618
36    H36     15.4765   10.2787   26.4996 H       1  <1>   0.0634
37    H37     16.4808   10.2021   25.0062 H       1  <1>   0.0634
38    H38     17.8587    8.8218   27.0900 H       1  <1>   0.1859
39    H39     15.1619    5.4231   26.5373 H       1  <1>   0.0587
40    H40     16.1661    5.3465   25.0438 H       1  <1>   0.0587
41    H41     15.7721    4.1489   28.5213 H       1  <1>   0.0621
42    H42     18.1709    3.9660   24.9545 H       1  <1>   0.0621
43    H43     16.9386    2.1436   29.4087 H       1  <1>   0.0618
44    H44     19.3374    1.9605   25.8417 H       1  <1>   0.0618
45    H45     18.7213    1.0493   28.0690 H       1  <1>   0.0618
@<TRIPOS>BOND
1     1     2     1
2     1     3     ar
3     1     4     ar
4     2     5     1
5     3     6     ar
6     4     7     ar
7     5     8     1
8     5     9     1
9     6     10    ar
10    8     11    1
11    9     12    1
12    9     13    1
13    11    14    1
14    11    15    2
15    14    16    1
16    16    17    1
17    17    18    1
18    17    19    2
19    18    20    1
20    20    21    1
21    21    22    ar
22    21    23    ar
23    22    24    ar
24    23    25    ar
25    24    26    ar
26    7     10    ar
27    25    26    ar
28    2     27    1
29    2     28    1
30    3     29    1
31    4     30    1
32    5     31    1
33    6     32    1
34    7     33    1
35    8     34    1
36    10    35    1
37    14    36    1
38    14    37    1
39    16    38    1
40    20    39    1
41    20    40    1
42    22    41    1
43    23    42    1
44    24    43    1
45    25    44    1
46    26    45    1
@<TRIPOS>SUBSTRUCTURE
1   ****   1     TEMP       0   ****  **** 


########## Number      : 42
########## Source num  : 3935
########## Name        : MFCD00029894
########## Description : N-(3-METHYL-5-(4-METHYLPHENYLAZO)PHENYL)-3,4,5,6-TETRABROMOPHTHALAMIC_ACID
########## Reflect     : 0
########## Energy score                             :     -27.17
##########   van der Waals component                      -19.86
##########   electrostatic component                       -7.31
########## RMSD from input orientation (A)          :      32.33

@<TRIPOS>MOLECULE
MFCD00029894
46    48    1     0     0    
SMALL
GASTEIGER
****
N-(3-METHYL-5-(4-METHYLPHENYLAZO)PHENYL)-3,4,5,6-TETRABROMOPHTHALAMIC_ACID
@<TRIPOS>ATOM
1     C1      18.4322   12.1633   26.1448 C.ar    1  <1>   0.0608
2     C2      17.3693   13.0302   26.4248 C.ar    1  <1>   0.0178
3     C3      18.1903   10.7072   26.0355 C.2     1  <1>   0.2390
4     C4      19.7239   12.6735   25.9683 C.ar    1  <1>   0.0452
5     C5      17.5981   14.4076   26.5284 C.ar    1  <1>   0.0392
6     C6      16.0038   12.4910   26.6114 C.2     1  <1>   0.0748
7     N7      18.4654   10.0709   24.9005 N.am    1  <1>  -0.2539
8     O8      17.7348   10.0857   26.9942 O.2     1  <1>  -0.3285
9     C9      19.9528   14.0507   26.0719 C.ar    1  <1>   0.0462
10    BR10    21.1285   11.5276   25.5985 Br      1  <1>  -0.0403
11    C11     18.8899   14.9178   26.3519 C.ar    1  <1>   0.0458
12    BR12    16.1936   15.5534   26.8983 Br      1  <1>  -0.0407
13    O13     15.1927   13.0466   27.4771 O.co2   1  <1>  -0.5400
14    O14     15.6335   11.5289   25.9590 O.co2   1  <1>  -0.5400
15    C15     18.2341    8.6788   24.7959 C.ar    1  <1>   0.0660
16    BR16    21.6597   14.7249   25.8387 Br      1  <1>  -0.0400
17    BR17    19.1923   16.7378   26.4886 Br      1  <1>  -0.0400
18    C18     16.9939    8.2069   24.3497 C.ar    1  <1>  -0.0086
19    C19     19.2456    7.7735   25.1385 C.ar    1  <1>  -0.0277
20    C20     16.7651    6.8295   24.2462 C.ar    1  <1>   0.0647
21    C21     19.0168    6.3961   25.0351 C.ar    1  <1>  -0.0440
22    N22     15.5248    6.3575   23.8001 N.2     1  <1>  -0.2054
23    C23     17.7766    5.9242   24.5888 C.ar    1  <1>  -0.0341
24    C24     20.1077    5.4197   25.4046 C.3     1  <1>  -0.0388
25    N25     15.3206    5.1279   23.7076 N.2     1  <1>  -0.2023
26    C26     14.0803    4.6559   23.2615 C.ar    1  <1>   0.0702
27    C27     13.8642    4.4386   21.8955 C.ar    1  <1>  -0.0290
28    C28     13.0562    4.4011   24.1815 C.ar    1  <1>  -0.0290
29    C29     12.6239    3.9667   21.4493 C.ar    1  <1>  -0.0469
30    C30     11.8160    3.9292   23.7353 C.ar    1  <1>  -0.0469
31    C31     11.5998    3.7119   22.3692 C.ar    1  <1>  -0.0402
32    C32     10.2622    3.2029   21.8880 C.3     1  <1>  -0.0363
33    H33     18.8357   10.5762   24.1210 H       1  <1>   0.2018
34    H34     16.2108    8.9079   24.0842 H       1  <1>   0.0674
35    H35     20.2059    8.1389   25.4839 H       1  <1>   0.0659
36    H36     17.5995    4.8578   24.5086 H       1  <1>   0.0651
37    H37     20.9965    5.9813   25.7280 H       1  <1>   0.0279
38    H38     19.7709    4.7758   26.2303 H       1  <1>   0.0279
39    H39     20.3712    4.8038   24.5322 H       1  <1>   0.0279
40    H40     14.6572    4.6358   21.1832 H       1  <1>   0.0691
41    H41     13.2235    4.5692   25.2392 H       1  <1>   0.0691
42    H42     12.4566    3.7985   20.3916 H       1  <1>   0.0677
43    H43     11.0229    3.7320   24.4475 H       1  <1>   0.0677
44    H44     10.2915    3.0983   20.7934 H       1  <1>   0.0285
45    H45     10.0513    2.2207   22.3362 H       1  <1>   0.0285
46    H46      9.4699    3.9164   22.1584 H       1  <1>   0.0285
@<TRIPOS>BOND
1     1     2     ar
2     1     3     1
3     1     4     ar
4     2     5     ar
5     2     6     1
6     3     7     1
7     3     8     2
8     4     9     ar
9     4     10    1
10    5     11    ar
11    5     12    1
12    6     13    1
13    6     14    1
14    7     15    1
15    9     16    1
16    11    17    1
17    15    18    ar
18    15    19    ar
19    18    20    ar
20    19    21    ar
21    20    22    1
22    20    23    ar
23    21    24    1
24    22    25    2
25    25    26    1
26    26    27    ar
27    26    28    ar
28    27    29    ar
29    28    30    ar
30    29    31    ar
31    31    32    1
32    9     11    ar
33    21    23    ar
34    30    31    ar
35    7     33    1
36    18    34    1
37    19    35    1
38    23    36    1
39    24    37    1
40    24    38    1
41    24    39    1
42    27    40    1
43    28    41    1
44    29    42    1
45    30    43    1
46    32    44    1
47    32    45    1
48    32    46    1
@<TRIPOS>SUBSTRUCTURE
1   ****   1     TEMP       0   ****  **** 


########## Number      : 43
########## Source num  : 7776
########## Name        : MFCD00057715
########## Description : ISONOPALINE
########## Reflect     : 0
########## Energy score                             :     -27.16
##########   van der Waals component                      -13.63
##########   electrostatic component                      -13.53
########## RMSD from input orientation (A)          :      34.85

@<TRIPOS>MOLECULE
MFCD00057715
36    35    1     0     0    
SMALL
GASTEIGER
****
ISONOPALINE
@<TRIPOS>ATOM
1     C1      18.5133   12.2762   26.9498 C.3     1  <1>   0.0737
2     N2      18.5198   10.8224   27.1673 N.am    1  <1>  -0.2925
3     C3      17.1518   12.8447   27.3476 C.3     1  <1>  -0.0226
4     C4      19.5912   12.9159   27.7917 C.2     1  <1>   0.0681
5     C5      18.7355    9.9982   26.1460 C.2     1  <1>   0.1937
6     C6      17.1451   14.3558   27.1215 C.3     1  <1>  -0.0145
7     O7      20.5530   13.5960   27.2185 O.co2   1  <1>  -0.5441
8     O8      19.5665   12.7994   29.0060 O.co2   1  <1>  -0.5441
9     C9      18.7422    8.5049   26.3694 C.3     1  <1>   0.0279
10    O10     18.9295   10.4524   25.0196 O.2     1  <1>  -0.3385
11    C11     15.7997   14.9176   27.5146 C.2     1  <1>   0.0435
12    C12     19.0105    7.7928   25.0444 C.3     1  <1>  -0.0150
13    O13     15.5681   16.2021   27.4027 O.co2   1  <1>  -0.5464
14    O14     14.9284   14.1751   27.9364 O.co2   1  <1>  -0.5464
15    C15     19.0173    6.2817   25.2704 C.3     1  <1>   0.0581
16    N16     19.2755    5.5967   23.9956 N.pl3   1  <1>  -0.2382
17    C17     19.2814    4.2516   24.1968 C.cat   1  <1>   0.3211
18    N18     19.5020    3.4088   23.1525 N.pl3   1  <1>  -0.2516
19    N19     19.0733    3.7642   25.4057 N.pl3   1  <1>  -0.2516
20    H20     18.7150   12.4963   25.8912 H       1  <1>   0.0595
21    H21     18.3619   10.4531   28.0832 H       1  <1>   0.1792
22    H22     16.3628   12.3890   26.7315 H       1  <1>   0.0292
23    H23     16.9600   12.6431   28.4118 H       1  <1>   0.0292
24    H24     17.9227   14.8290   27.7392 H       1  <1>   0.0309
25    H25     17.3256   14.5748   26.0588 H       1  <1>   0.0309
26    H26     19.5350    8.2381   27.0838 H       1  <1>   0.0375
27    H27     17.7646    8.1812   26.7558 H       1  <1>   0.0375
28    H28     18.2201    8.0411   24.3208 H       1  <1>   0.0299
29    H29     19.9905    8.0979   24.6487 H       1  <1>   0.0299
30    H30     19.8099    6.0149   25.9848 H       1  <1>   0.0627
31    H31     18.0396    5.9580   25.6568 H       1  <1>   0.0627
32    H32     19.4283    6.0632   23.0901 H       1  <1>   0.2427
33    H33     19.5065    2.3902   23.3049 H       1  <1>   0.2394
34    H34     19.6646    3.7892   22.2093 H       1  <1>   0.2394
35    H35     18.9062    4.4025   26.1967 H       1  <1>   0.2394
36    H36     19.0779    2.7455   25.5582 H       1  <1>   0.2394
@<TRIPOS>BOND
1     1     2     1
2     1     3     1
3     1     4     1
4     2     5     1
5     3     6     1
6     4     7     1
7     4     8     1
8     5     9     1
9     5     10    2
10    6     11    1
11    9     12    1
12    11    13    1
13    11    14    1
14    12    15    1
15    15    16    1
16    16    17    1
17    17    18    1
18    17    19    1
19    1     20    1
20    2     21    1
21    3     22    1
22    3     23    1
23    6     24    1
24    6     25    1
25    9     26    1
26    9     27    1
27    12    28    1
28    12    29    1
29    15    30    1
30    15    31    1
31    16    32    1
32    18    33    1
33    18    34    1
34    19    35    1
35    19    36    1
@<TRIPOS>SUBSTRUCTURE
1   ****   1     TEMP       0   ****  **** 


########## Number      : 44
########## Source num  : 9660
########## Name        : MFCD00070340
########## Description : 11BETA-HYDROXYETIOCHOLANOLONE_GLUCURONIDE
########## Reflect     : 0
########## Energy score                             :     -27.08
##########   van der Waals component                      -19.47
##########   electrostatic component                       -7.61
########## RMSD from input orientation (A)          :      33.14

@<TRIPOS>MOLECULE
MFCD00070340
71    75    1     0     0    
SMALL
GASTEIGER
****
11BETA-HYDROXYETIOCHOLANOLONE_GLUCURONIDE
@<TRIPOS>ATOM
1     C1      17.5063    5.7497   24.2796 C.3     1  <1>  -0.0062
2     C2      16.1708    4.9833   24.2575 C.3     1  <1>  -0.0312
3     C3      17.5330    6.8025   25.4032 C.3     1  <1>  -0.0236
4     C4      18.7055    4.7886   24.3798 C.3     1  <1>   0.0601
5     C5      16.1441    3.9304   23.1339 C.3     1  <1>  -0.0210
6     C6      14.9716    5.9443   24.1573 C.3     1  <1>  -0.0493
7     C7      16.3338    7.7635   25.3030 C.3     1  <1>  -0.0329
8     C8      18.8685    7.5689   25.4253 C.3     1  <1>  -0.0447
9     C9      17.4703    6.0239   26.7141 C.3     1  <1>  -0.0590
10    C10     18.6788    3.7358   23.2563 C.3     1  <1>  -0.0102
11    O11     18.6707    4.1250   25.6460 O.3     1  <1>  -0.3914
12    C12     17.3433    2.9694   23.2341 C.3     1  <1>   0.0413
13    C13     14.9444    3.0183   22.8174 C.3     1  <1>  -0.0380
14    C14     14.9982    6.9971   25.2809 C.3     1  <1>  -0.0494
15    C15     16.3603    8.8164   26.4265 C.3     1  <1>  -0.0232
16    C16     18.8951    8.6217   26.5489 C.3     1  <1>  -0.0260
17    C17     17.0295    1.8410   22.2812 C.2     1  <1>   0.1297
18    C18     17.3626    2.2993   24.6050 C.3     1  <1>  -0.0485
19    C19     15.5462    1.8608   21.9991 C.3     1  <1>   0.0167
20    C20     17.6960    9.5827   26.4487 C.3     1  <1>   0.0621
21    O21     17.8306    1.0647   21.8124 O.2     1  <1>  -0.3379
22    O22     17.7098   10.4695   27.5705 O.3     1  <1>  -0.3454
23    C23     17.8341   11.8369   27.1710 C.3     1  <1>   0.1884
24    O24     19.0396   12.3923   27.7032 O.3     1  <1>  -0.3385
25    C25     16.5934   12.6300   27.6215 C.3     1  <1>   0.1341
26    C26     19.2473   13.7283   27.2372 C.3     1  <1>   0.1257
27    C27     16.7436   14.1228   27.2737 C.3     1  <1>   0.1142
28    O28     15.4369   12.1079   26.9621 O.3     1  <1>  -0.3841
29    C29     18.1195   14.6729   27.6929 C.3     1  <1>   0.1137
30    C30     20.5794   14.2431   27.7277 C.2     1  <1>   0.0748
31    O31     15.7189   14.8650   27.9400 O.3     1  <1>  -0.3864
32    O32     18.3134   15.9581   27.0966 O.3     1  <1>  -0.3863
33    O33     21.5158   14.5816   26.8611 O.co2   1  <1>  -0.5437
34    O34     20.7902   14.3463   28.9249 O.co2   1  <1>  -0.5437
35    H35     17.5927    6.2806   23.3339 H       1  <1>   0.0334
36    H36     16.0843    4.4524   25.2032 H       1  <1>   0.0308
37    H37     16.3145    4.4945   22.2193 H       1  <1>   0.0317
38    H38     19.6392    5.3664   24.3127 H       1  <1>   0.0597
39    H39     15.0042    6.4678   23.1904 H       1  <1>   0.0268
40    H40     14.0370    5.3705   24.2416 H       1  <1>   0.0268
41    H41     16.4086    8.2949   24.3428 H       1  <1>   0.0307
42    H42     19.6924    6.8601   25.5946 H       1  <1>   0.0271
43    H43     19.0087    8.0841   24.4636 H       1  <1>   0.0271
44    H44     16.5291    5.4555   26.7485 H       1  <1>   0.0235
45    H45     18.3150    5.3219   26.7742 H       1  <1>   0.0235
46    H46     17.4997    6.7198   27.5654 H       1  <1>   0.0235
47    H47     18.8079    4.2362   22.2852 H       1  <1>   0.0304
48    H48     19.4916    3.0120   23.4161 H       1  <1>   0.0304
49    H49     18.6873    4.7765   26.3372 H       1  <1>   0.2098
50    H50     14.4878    2.6318   23.7405 H       1  <1>   0.0277
51    H51     14.1897    3.5514   22.2206 H       1  <1>   0.0277
52    H52     14.1854    7.7209   25.1211 H       1  <1>   0.0268
53    H53     14.8693    6.4967   26.2519 H       1  <1>   0.0268
54    H54     15.5477    9.5403   26.2665 H       1  <1>   0.0293
55    H55     16.2312    8.3161   27.3976 H       1  <1>   0.0293
56    H56     18.8527    8.1147   27.5241 H       1  <1>   0.0290
57    H57     19.8201    9.2121   26.4730 H       1  <1>   0.0290
58    H58     16.4449    1.7049   24.7261 H       1  <1>   0.0243
59    H59     18.2340    1.6328   24.6846 H       1  <1>   0.0243
60    H60     17.4014    3.0632   25.3955 H       1  <1>   0.0243
61    H61     15.1018    0.9026   22.3061 H       1  <1>   0.0393
62    H62     15.3797    2.0241   20.9241 H       1  <1>   0.0393
63    H63     17.7978   10.1605   25.5183 H       1  <1>   0.0597
64    H64     17.8785   11.8867   26.0731 H       1  <1>   0.0938
65    H65     16.4605   12.5178   28.7077 H       1  <1>   0.0671
66    H66     19.2736   13.7169   26.1376 H       1  <1>   0.0669
67    H67     16.6443   14.2505   26.1857 H       1  <1>   0.0648
68    H68     15.3467   11.1873   27.1782 H       1  <1>   0.2101
69    H69     18.1371   14.7638   28.7889 H       1  <1>   0.0648
70    H70     14.8712   14.5240   27.6799 H       1  <1>   0.2100
71    H71     19.1627   16.2949   27.3568 H       1  <1>   0.2100
@<TRIPOS>BOND
1     1     2     1
2     1     3     1
3     1     4     1
4     2     5     1
5     2     6     1
6     3     7     1
7     3     8     1
8     3     9     1
9     4     10    1
10    4     11    1
11    5     12    1
12    5     13    1
13    6     14    1
14    7     15    1
15    8     16    1
16    12    17    1
17    12    18    1
18    13    19    1
19    15    20    1
20    17    21    2
21    20    22    1
22    22    23    1
23    23    24    1
24    23    25    1
25    24    26    1
26    25    27    1
27    25    28    1
28    26    29    1
29    26    30    1
30    27    31    1
31    29    32    1
32    30    33    1
33    30    34    1
34    7     14    1
35    10    12    1
36    16    20    1
37    17    19    1
38    27    29    1
39    1     35    1
40    2     36    1
41    5     37    1
42    4     38    1
43    6     39    1
44    6     40    1
45    7     41    1
46    8     42    1
47    8     43    1
48    9     44    1
49    9     45    1
50    9     46    1
51    10    47    1
52    10    48    1
53    11    49    1
54    13    50    1
55    13    51    1
56    14    52    1
57    14    53    1
58    15    54    1
59    15    55    1
60    16    56    1
61    16    57    1
62    18    58    1
63    18    59    1
64    18    60    1
65    19    61    1
66    19    62    1
67    20    63    1
68    23    64    1
69    25    65    1
70    26    66    1
71    27    67    1
72    28    68    1
73    29    69    1
74    31    70    1
75    32    71    1
@<TRIPOS>SUBSTRUCTURE
1   ****   1     TEMP       0   ****  **** 


########## Number      : 45
########## Source num  : 7539
########## Name        : MFCD00056522
########## Description : 5BETA-PREGNANE-3ALPHA,20ALPHA-DIOL_GLUCURONIDE
########## Reflect     : 0
########## Energy score                             :     -27.00
##########   van der Waals component                      -15.71
##########   electrostatic component                      -11.29
########## RMSD from input orientation (A)          :      33.19

@<TRIPOS>MOLECULE
MFCD00056522
78    82    1     0     0    
SMALL
GASTEIGER
****
5BETA-PREGNANE-3ALPHA,20ALPHA-DIOL_GLUCURONIDE
@<TRIPOS>ATOM
1     C1      16.7464    6.5743   24.5772 C.3     1  <1>  -0.0344
2     C2      17.0419    7.7924   23.6826 C.3     1  <1>  -0.0323
3     C3      15.2359    6.2836   24.6520 C.3     1  <1>  -0.0322
4     C4      17.3573    6.7447   25.9805 C.3     1  <1>  -0.0494
5     C5      18.5524    8.0830   23.6078 C.3     1  <1>  -0.0260
6     C6      16.4310    7.6220   22.2793 C.3     1  <1>  -0.0489
7     C7      14.6250    6.1133   23.2487 C.3     1  <1>  -0.0238
8     C8      14.6297    5.1311   25.4741 C.3     1  <1>  -0.0491
9     C9      18.8677    7.0353   25.9057 C.3     1  <1>  -0.0494
10    C10     19.1632    8.2535   25.0112 C.3     1  <1>  -0.0330
11    C11     18.7613    9.3420   22.7459 C.3     1  <1>  -0.0448
12    C12     19.2155    6.9122   22.8880 C.3     1  <1>  -0.0590
13    C13     14.9206    7.3314   22.3541 C.3     1  <1>  -0.0467
14    C14     13.2041    5.5743   23.4977 C.3     1  <1>  -0.0096
15    C15     15.3410    4.9929   22.4998 C.3     1  <1>  -0.0590
16    C16     13.3486    4.6839   24.7459 C.3     1  <1>  -0.0471
17    C17     18.6206    9.5125   25.7125 C.3     1  <1>  -0.0232
18    C18     18.2187   10.6011   23.4473 C.3     1  <1>  -0.0260
19    C19     12.6786    4.7869   22.2982 C.3     1  <1>   0.0558
20    C20     18.8296   10.7715   24.8506 C.3     1  <1>   0.0621
21    C21     11.1614    4.6590   22.3987 C.3     1  <1>  -0.0387
22    O22     13.2673    3.4838   22.2886 O.3     1  <1>  -0.3918
23    O23     18.2162   11.8900   25.4969 O.3     1  <1>  -0.3454
24    C24     19.1659   12.9097   25.8185 C.3     1  <1>   0.1884
25    O25     19.2104   13.1051   27.2344 O.3     1  <1>  -0.3385
26    C26     18.8112   14.2105   25.0744 C.3     1  <1>   0.1341
27    C27     20.2247   14.0451   27.5986 C.3     1  <1>   0.1257
28    C28     19.7736   15.3459   25.4702 C.3     1  <1>   0.1142
29    O29     18.9038   13.9859   23.6651 O.3     1  <1>  -0.3841
30    C30     19.9549   15.4367   26.9967 C.3     1  <1>   0.1137
31    C31     20.3185   14.1441   29.1024 C.2     1  <1>   0.0748
32    O32     19.2585   16.5882   24.9842 O.3     1  <1>  -0.3864
33    O33     21.0594   16.2970   27.2884 O.3     1  <1>  -0.3863
34    O34     21.4391   13.8143   29.7169 O.co2   1  <1>  -0.5437
35    O35     19.3584   14.5290   29.7494 O.co2   1  <1>  -0.5437
36    H36     17.2217    5.7101   24.1179 H       1  <1>   0.0306
37    H37     16.5664    8.6566   24.1419 H       1  <1>   0.0309
38    H38     14.7877    7.1903   25.0531 H       1  <1>   0.0309
39    H39     20.2418    8.3530   24.9085 H       1  <1>   0.0307
40    H40     16.8670    7.5863   26.4914 H       1  <1>   0.0268
41    H41     17.2101    5.8193   26.5565 H       1  <1>   0.0268
42    H42     16.5781    8.5474   21.7033 H       1  <1>   0.0268
43    H43     16.9213    6.7803   21.7684 H       1  <1>   0.0268
44    H44     15.3337    4.2878   25.5300 H       1  <1>   0.0268
45    H45     14.3751    5.4749   26.4874 H       1  <1>   0.0268
46    H46     19.2485    7.2462   26.9160 H       1  <1>   0.0268
47    H47     19.3862    6.1615   25.4844 H       1  <1>   0.0268
48    H48     19.8366    9.4833   22.5624 H       1  <1>   0.0271
49    H49     18.2305    9.2212   21.7902 H       1  <1>   0.0271
50    H50     19.0786    5.9997   23.4869 H       1  <1>   0.0235
51    H51     18.7507    6.7664   21.9018 H       1  <1>   0.0235
52    H52     20.2920    7.1052   22.7704 H       1  <1>   0.0235
53    H53     14.4021    8.2053   22.7754 H       1  <1>   0.0271
54    H54     14.5398    7.1205   21.3439 H       1  <1>   0.0271
55    H55     12.5116    6.4005   23.7163 H       1  <1>   0.0331
56    H56     15.2025    4.0497   23.0487 H       1  <1>   0.0235
57    H57     14.9169    4.8856   21.4906 H       1  <1>   0.0235
58    H58     16.4165    5.2139   22.4331 H       1  <1>   0.0235
59    H59     13.4299    3.6310   24.4381 H       1  <1>   0.0269
60    H60     12.4712    4.8179   25.3958 H       1  <1>   0.0269
61    H61     17.5426    9.3918   25.8947 H       1  <1>   0.0293
62    H62     19.1488    9.6539   26.6669 H       1  <1>   0.0293
63    H63     18.4713   11.4887   22.8488 H       1  <1>   0.0290
64    H64     17.1270   10.5176   23.5520 H       1  <1>   0.0290
65    H65     12.9489    5.3031   21.3653 H       1  <1>   0.0593
66    H66     19.9076   10.9561   24.7340 H       1  <1>   0.0597
67    H67     10.7916    4.0913   21.5321 H       1  <1>   0.0255
68    H68     10.8904    4.1228   23.3202 H       1  <1>   0.0255
69    H69     10.6998    5.6574   22.3962 H       1  <1>   0.0255
70    H70     14.2111    3.5712   22.2259 H       1  <1>   0.2098
71    H71     20.1618   12.5928   25.4755 H       1  <1>   0.0938
72    H72     17.7791   14.5027   25.3176 H       1  <1>   0.0671
73    H73     21.1924   13.6811   27.2229 H       1  <1>   0.0669
74    H74     20.7598   15.1542   25.0222 H       1  <1>   0.0648
75    H75     18.3093   13.2853   23.4239 H       1  <1>   0.2101
76    H76     19.0338   15.8523   27.4311 H       1  <1>   0.0648
77    H77     19.1475   16.5298   24.0425 H       1  <1>   0.2100
78    H78     21.1689   16.3511   28.2305 H       1  <1>   0.2100
@<TRIPOS>BOND
1     1     2     1
2     1     3     1
3     1     4     1
4     2     5     1
5     2     6     1
6     3     7     1
7     3     8     1
8     4     9     1
9     5     10    1
10    5     11    1
11    5     12    1
12    6     13    1
13    7     14    1
14    7     15    1
15    8     16    1
16    10    17    1
17    11    18    1
18    14    19    1
19    17    20    1
20    19    21    1
21    19    22    1
22    20    23    1
23    23    24    1
24    24    25    1
25    24    26    1
26    25    27    1
27    26    28    1
28    26    29    1
29    27    30    1
30    27    31    1
31    28    32    1
32    30    33    1
33    31    34    1
34    31    35    1
35    7     13    1
36    9     10    1
37    14    16    1
38    18    20    1
39    28    30    1
40    1     36    1
41    2     37    1
42    3     38    1
43    10    39    1
44    4     40    1
45    4     41    1
46    6     42    1
47    6     43    1
48    8     44    1
49    8     45    1
50    9     46    1
51    9     47    1
52    11    48    1
53    11    49    1
54    12    50    1
55    12    51    1
56    12    52    1
57    13    53    1
58    13    54    1
59    14    55    1
60    15    56    1
61    15    57    1
62    15    58    1
63    16    59    1
64    16    60    1
65    17    61    1
66    17    62    1
67    18    63    1
68    18    64    1
69    19    65    1
70    20    66    1
71    21    67    1
72    21    68    1
73    21    69    1
74    22    70    1
75    24    71    1
76    26    72    1
77    27    73    1
78    28    74    1
79    29    75    1
80    30    76    1
81    32    77    1
82    33    78    1
@<TRIPOS>SUBSTRUCTURE
1   ****   1     TEMP       0   ****  **** 


########## Number      : 46
########## Source num  : 7625
########## Name        : MFCD00056974
########## Description : N6-([6-AMINOHEXYL]-CARBAMOYLMETHYL)-ADENOSINE_5'-MONO-PHOSPHATE_LITHIUM_SALT
########## Reflect     : 0
########## Energy score                             :     -26.99
##########   van der Waals component                      -12.76
##########   electrostatic component                      -14.23
########## RMSD from input orientation (A)          :      41.52

@<TRIPOS>MOLECULE
MFCD00056974
63    65    1     0     0    
SMALL
GASTEIGER
****
N6-([6-AMINOHEXYL]-CARBAMOYLMETHYL)-ADENOSINE_5'-MONO-PHOSPHATE_LITHIUM_SALT
@<TRIPOS>ATOM
1     N1      19.1936    8.8567   23.5650 N.pl3   1  <1>  -0.2214
2     C2      19.1348   10.0319   22.8323 C.ar    1  <1>   0.1632
3     C3      20.0851    8.5826   24.7013 C.3     1  <1>   0.1822
4     C4      18.2579    7.9920   23.0271 C.2     1  <1>   0.0871
5     C5      18.1474    9.8400   21.8556 C.ar    1  <1>   0.1259
6     N6      19.7902   11.1940   22.8931 N.ar    1  <1>  -0.2452
7     O7      19.8777    9.5575   25.7267 O.3     1  <1>  -0.3413
8     C8      21.5523    8.7592   24.2685 C.3     1  <1>   0.1333
9     N9      17.6463    8.6064   22.0053 N.2     1  <1>  -0.2764
10    C10     17.8895   10.8952   20.9723 C.ar    1  <1>   0.1447
11    C11     19.5178   12.1834   22.0314 C.ar    1  <1>   0.0835
12    C12     21.0549    9.6282   26.5353 C.3     1  <1>   0.1136
13    C13     22.1986    9.2212   25.5877 C.3     1  <1>   0.1140
14    O14     22.1163    7.5269   23.8121 O.3     1  <1>  -0.3841
15    N15     18.5812   12.0374   21.0842 N.ar    1  <1>  -0.2480
16    N16     16.9037   10.7563   19.9668 N.pl3   1  <1>  -0.2990
17    C17     21.2653   11.0299   27.1060 C.3     1  <1>   0.0809
18    O18     22.9178    8.1281   26.1646 O.3     1  <1>  -0.3864
19    C19     15.6044   11.2030   20.4895 C.3     1  <1>   0.1032
20    O20     20.1602   11.3736   27.9457 O.3     1  <1>  -0.3519
21    C21     14.5523   11.0549   19.4165 C.2     1  <1>   0.2151
22    P22     20.3160   12.8076   28.5655 P.3     1  <1>   0.0602
23    N23     13.2929   11.4008   19.6677 N.am    1  <1>  -0.2975
24    O24     14.8600   10.6141   18.3102 O.2     1  <1>  -0.3364
25    O25     19.0747   13.1231   29.4735 O.co2   1  <1>  -0.6336
26    O26     21.5417   12.8608   29.3753 O.co2   1  <1>  -0.6336
27    O27     20.4020   13.8423   27.4417 O.co2   1  <1>  -0.6336
28    C28     12.2687   11.2565   18.6231 C.3     1  <1>   0.0262
29    C29     10.9181   11.7209   19.1665 C.3     1  <1>  -0.0333
30    C30      9.8535   11.5709   18.0806 C.3     1  <1>  -0.0511
31    C31      8.5030   12.0353   18.6239 C.3     1  <1>  -0.0482
32    C32      7.4384   11.8852   17.5382 C.3     1  <1>  -0.0126
33    C33      6.0879   12.3496   18.0814 C.3     1  <1>  -0.0354
34    N34      5.0636   12.2054   17.0369 N.4     1  <1>   0.2185
35    H35     19.9209    7.5630   25.0800 H       1  <1>   0.0928
36    H36     18.0526    6.9809   23.3758 H       1  <1>   0.1020
37    H37     21.6584    9.5116   23.4732 H       1  <1>   0.0671
38    H38     20.0639   13.1171   22.1016 H       1  <1>   0.1142
39    H39     20.9951    8.9080   27.3647 H       1  <1>   0.0647
40    H40     22.8671   10.0784   25.4196 H       1  <1>   0.0648
41    H41     21.6936    7.2755   22.9993 H       1  <1>   0.2101
42    H42     17.0707   10.3978   19.0157 H       1  <1>   0.1791
43    H43     22.1880   11.0543   27.7042 H       1  <1>   0.0590
44    H44     21.3303   11.7605   26.2863 H       1  <1>   0.0590
45    H45     23.6229    7.8783   25.5789 H       1  <1>   0.2100
46    H46     15.3190   10.5874   21.3552 H       1  <1>   0.0628
47    H47     15.6649   12.2608   20.7850 H       1  <1>   0.0628
48    H48     13.0427   11.7592   20.5672 H       1  <1>   0.1788
49    H49     12.5338   11.8746   17.7528 H       1  <1>   0.0514
50    H50     12.1880   10.2013   18.3231 H       1  <1>   0.0514
51    H51     10.6327   11.1053   20.0322 H       1  <1>   0.0284
52    H52     10.9787   12.7787   19.4620 H       1  <1>   0.0284
53    H53     10.1188   12.1891   17.2103 H       1  <1>   0.0266
54    H54      9.7727   10.5158   17.7805 H       1  <1>   0.0266
55    H55      8.2177   11.4198   19.4897 H       1  <1>   0.0267
56    H56      8.5636   13.0931   18.9193 H       1  <1>   0.0267
57    H57      7.7036   12.5034   16.6678 H       1  <1>   0.0317
58    H58      7.3577   10.8300   17.2381 H       1  <1>   0.0317
59    H59      5.8024   11.7340   18.9472 H       1  <1>   0.0813
60    H60      6.1484   13.4074   18.3769 H       1  <1>   0.0813
61    H61      4.1763   12.5135   17.4026 H       1  <1>   0.1994
62    H62      5.3043   12.7722   16.2389 H       1  <1>   0.1994
63    H63      4.9873   11.2388   16.7613 H       1  <1>   0.1994
@<TRIPOS>BOND
1     1     2     1
2     1     3     1
3     1     4     1
4     2     5     ar
5     2     6     ar
6     3     7     1
7     3     8     1
8     4     9     2
9     5     10    ar
10    6     11    ar
11    7     12    1
12    8     13    1
13    8     14    1
14    10    15    ar
15    10    16    1
16    12    17    1
17    13    18    1
18    16    19    1
19    17    20    1
20    19    21    1
21    20    22    1
22    21    23    1
23    21    24    2
24    22    25    1
25    22    26    1
26    22    27    1
27    23    28    1
28    28    29    1
29    29    30    1
30    30    31    1
31    31    32    1
32    32    33    1
33    33    34    1
34    5     9     1
35    11    15    ar
36    12    13    1
37    3     35    1
38    4     36    1
39    8     37    1
40    11    38    1
41    12    39    1
42    13    40    1
43    14    41    1
44    16    42    1
45    17    43    1
46    17    44    1
47    18    45    1
48    19    46    1
49    19    47    1
50    23    48    1
51    28    49    1
52    28    50    1
53    29    51    1
54    29    52    1
55    30    53    1
56    30    54    1
57    31    55    1
58    31    56    1
59    32    57    1
60    32    58    1
61    33    59    1
62    33    60    1
63    34    61    1
64    34    62    1
65    34    63    1
@<TRIPOS>SUBSTRUCTURE
1   ****   1     TEMP       0   ****  **** 


########## Number      : 47
########## Source num  : 7985
########## Name        : MFCD00058347
########## Description : ARG-HIS-PHE_DIACETATE_SALT
########## Reflect     : 0
########## Energy score                             :     -26.93
##########   van der Waals component                      -12.69
##########   electrostatic component                      -14.23
########## RMSD from input orientation (A)          :      46.58

@<TRIPOS>MOLECULE
MFCD00058347
64    65    1     0     0    
SMALL
GASTEIGER
****
ARG-HIS-PHE_DIACETATE_SALT
@<TRIPOS>ATOM
1     C1      18.0092   18.7485   25.1609 C.3     1  <1>   0.1213
2     C2      19.0213   19.7531   25.7097 C.3     1  <1>   0.0217
3     C3      17.9852   17.5244   26.0446 C.2     1  <1>   0.2191
4     N4      16.6735   19.3620   25.1370 N.am    1  <1>  -0.2817
5     C5      19.0453   20.9773   24.8261 C.2     1  <1>   0.0377
6     N6      18.2885   16.3325   25.5381 N.am    1  <1>  -0.2903
7     O7      17.6852   17.6293   27.2328 O.2     1  <1>  -0.3360
8     C8      16.0196   19.4868   23.9856 C.2     1  <1>   0.2422
9     C9      18.2460   22.1167   24.9777 C.2     1  <1>   0.0310
10    N10     19.8354   21.1630   23.7599 N.2     1  <1>  -0.2821
11    C11     18.2650   15.1408   26.3983 C.3     1  <1>   0.0775
12    C12     14.6475   20.1168   23.9611 C.3     1  <1>   0.0542
13    O13     16.5325   19.0890   22.9408 O.2     1  <1>  -0.3323
14    N14     18.5958   22.9830   23.9579 N.pl3   1  <1>  -0.2960
15    C15     19.5857   22.3627   23.2177 C.2     1  <1>   0.0772
16    C16     18.3464   13.8851   25.5314 C.3     1  <1>  -0.0011
17    C17     19.4432   15.1781   27.3421 C.2     1  <1>   0.0684
18    C18     14.1225   20.1386   22.5264 C.3     1  <1>   0.0028
19    N19     14.7307   21.4922   24.4733 N.4     1  <1>   0.2283
20    C20     18.3411   12.6615   26.4161 C.ar    1  <1>  -0.0450
21    O21     19.2718   14.9174   28.6143 O.co2   1  <1>  -0.5441
22    O22     20.5548   15.4509   26.9197 O.co2   1  <1>  -0.5441
23    C23     12.7342   20.7762   22.5015 C.3     1  <1>  -0.0187
24    C24     17.1402   12.2056   26.9731 C.ar    1  <1>  -0.0585
25    C25     19.5369   11.9827   26.6792 C.ar    1  <1>  -0.0585
26    C26     12.2092   20.7978   21.0667 C.3     1  <1>   0.0578
27    C27     17.1353   11.0711   27.7933 C.ar    1  <1>  -0.0615
28    C28     19.5319   10.8482   27.4995 C.ar    1  <1>  -0.0615
29    N29     10.8735   21.4112   21.0429 N.pl3   1  <1>  -0.2383
30    C30     18.3311   10.3924   28.0566 C.ar    1  <1>  -0.0617
31    C31     10.4062   21.4305   19.7658 C.cat   1  <1>   0.3211
32    N32      9.1806   21.9554   19.4981 N.pl3   1  <1>  -0.2516
33    N33     11.1424   20.9397   18.7862 N.pl3   1  <1>  -0.2516
34    H34     18.2851   18.4632   24.1350 H       1  <1>   0.0669
35    H35     18.7333   20.0545   26.7277 H       1  <1>   0.0370
36    H36     20.0248   19.3030   25.7217 H       1  <1>   0.0370
37    H37     16.2566   19.6855   25.9864 H       1  <1>   0.1798
38    H38     18.5325   16.2472   24.5721 H       1  <1>   0.1793
39    H39     17.4955   22.2875   25.7480 H       1  <1>   0.0792
40    H40     17.3384   15.1261   26.9908 H       1  <1>   0.0599
41    H41     13.9615   19.5427   24.6012 H       1  <1>   0.0966
42    H42     18.1943   23.9153   23.7826 H       1  <1>   0.1901
43    H43     20.0795   22.7794   22.3411 H       1  <1>   0.1006
44    H44     17.4786   13.8405   24.8569 H       1  <1>   0.0338
45    H45     19.2770   13.8963   24.9450 H       1  <1>   0.0338
46    H46     14.7976   20.7307   21.8911 H       1  <1>   0.0327
47    H47     14.0494   19.1112   22.1404 H       1  <1>   0.0327
48    H48     15.0776   21.4696   25.4195 H       1  <1>   0.2003
49    H49     15.3633   22.0332   23.9048 H       1  <1>   0.2003
50    H50     13.8165   21.9165   24.4690 H       1  <1>   0.2003
51    H51     12.0432   20.1896   23.1246 H       1  <1>   0.0295
52    H52     12.7914   21.8091   22.8753 H       1  <1>   0.0295
53    H53     16.2143   12.7311   26.7693 H       1  <1>   0.0620
54    H54     20.4666   12.3355   26.2479 H       1  <1>   0.0620
55    H55     12.8842   21.3899   20.4314 H       1  <1>   0.0627
56    H56     12.1360   19.7703   20.6808 H       1  <1>   0.0627
57    H57     16.2055   10.7182   28.2245 H       1  <1>   0.0618
58    H58     20.4578   10.3227   27.7033 H       1  <1>   0.0618
59    H59     10.3695   21.7708   21.8660 H       1  <1>   0.2427
60    H60     18.3273    9.5140   28.6917 H       1  <1>   0.0618
61    H61      8.8266   21.9700   18.5309 H       1  <1>   0.2394
62    H62      8.6063   22.3385   20.2625 H       1  <1>   0.2394
63    H63     12.0706   20.5420   18.9891 H       1  <1>   0.2394
64    H64     10.7886   20.9543   17.8190 H       1  <1>   0.2394
@<TRIPOS>BOND
1     1     2     1
2     1     3     1
3     1     4     1
4     2     5     1
5     3     6     1
6     3     7     2
7     4     8     1
8     5     9     2
9     5     10    1
10    6     11    1
11    8     12    1
12    8     13    2
13    9     14    1
14    10    15    2
15    11    16    1
16    11    17    1
17    12    18    1
18    12    19    1
19    16    20    1
20    17    21    1
21    17    22    1
22    18    23    1
23    20    24    ar
24    20    25    ar
25    23    26    1
26    24    27    ar
27    25    28    ar
28    26    29    1
29    27    30    ar
30    29    31    1
31    31    32    1
32    31    33    1
33    14    15    1
34    28    30    ar
35    1     34    1
36    2     35    1
37    2     36    1
38    4     37    1
39    6     38    1
40    9     39    1
41    11    40    1
42    12    41    1
43    14    42    1
44    15    43    1
45    16    44    1
46    16    45    1
47    18    46    1
48    18    47    1
49    19    48    1
50    19    49    1
51    19    50    1
52    23    51    1
53    23    52    1
54    24    53    1
55    25    54    1
56    26    55    1
57    26    56    1
58    27    57    1
59    28    58    1
60    29    59    1
61    30    60    1
62    32    61    1
63    32    62    1
64    33    63    1
65    33    64    1
@<TRIPOS>SUBSTRUCTURE
1   ****   1     TEMP       0   ****  **** 


########## Number      : 48
########## Source num  : 5359
########## Name        : MFCD00037889
########## Description : BOC-D-HIS(DNP)-OH
########## Reflect     : 0
########## Energy score                             :     -26.92
##########   van der Waals component                      -22.52
##########   electrostatic component                       -4.40
########## RMSD from input orientation (A)          :      32.17

@<TRIPOS>MOLECULE
MFCD00037889
48    49    1     0     0    
SMALL
GASTEIGER
****
BOC-D-HIS(DNP)-OH
@<TRIPOS>ATOM
1     C1      17.2870    6.1726   25.6893 C.ar    1  <1>   0.1009
2     N2      16.9028    7.5055   25.4100 N.pl3   1  <1>  -0.2411
3     C3      16.3133    5.1736   25.8072 C.ar    1  <1>   0.1836
4     C4      18.6407    5.8529   25.8478 C.ar    1  <1>  -0.0337
5     C5      16.6020    8.4858   26.3380 C.2     1  <1>   0.0469
6     C6      16.7575    8.0736   24.1575 C.2     1  <1>   0.0927
7     C7      16.6933    3.8548   26.0837 C.ar    1  <1>   0.0161
8     N8      14.8919    5.5094   25.6409 N.pl3   1  <1>   0.0890
9     C9      19.0208    4.5341   26.1243 C.ar    1  <1>  -0.0253
10    C10     16.2775    9.6389   25.6133 C.2     1  <1>   0.0424
11    N11     16.3825    9.3511   24.3088 N.2     1  <1>  -0.2766
12    C12     18.0471    3.5351   26.2422 C.ar    1  <1>   0.1548
13    O13     14.0457    4.6402   25.7397 O.2     1  <1>  -0.1690
14    O14     14.5612    6.6564   25.4042 O.2     1  <1>  -0.1690
15    C15     15.8791   10.9725   26.1988 C.3     1  <1>   0.0172
16    N16     18.4462    2.1503   26.5325 N.pl3   1  <1>   0.0864
17    C17     17.1277   11.8256   26.4187 C.3     1  <1>   0.0843
18    O18     19.6229    1.8725   26.6702 O.2     1  <1>  -0.1690
19    O19     17.5998    1.2820   26.6350 O.2     1  <1>  -0.1690
20    N20     16.7399   13.1239   26.9887 N.am    1  <1>  -0.2626
21    C21     18.0606   11.1163   27.3709 C.2     1  <1>   0.0692
22    C22     17.0226   14.2478   26.3362 C.2     1  <1>   0.3350
23    O23     19.2703   10.7945   26.9846 O.co2   1  <1>  -0.5440
24    O24     17.6879   10.8430   28.5000 O.co2   1  <1>  -0.5440
25    O25     16.6771   15.4048   26.8442 O.3     1  <1>  -0.2978
26    O26     17.6039   14.2013   25.2646 O.2     1  <1>  -0.2946
27    C27     17.0023   16.5859   26.1067 C.3     1  <1>   0.0659
28    C28     16.5141   17.8134   26.8707 C.3     1  <1>  -0.0380
29    C29     18.5148   16.6700   25.9219 C.3     1  <1>  -0.0380
30    C30     16.3250   16.5348   24.7401 C.3     1  <1>  -0.0380
31    H31     19.3946    6.6265   25.7566 H       1  <1>   0.0603
32    H32     16.6150    8.3811   27.4219 H       1  <1>   0.0844
33    H33     16.9204    7.5674   23.2071 H       1  <1>   0.1062
34    H34     15.9395    3.0813   26.1750 H       1  <1>   0.0643
35    H35     20.0690    4.2866   26.2470 H       1  <1>   0.0610
36    H36     15.2062   11.4983   25.5055 H       1  <1>   0.0367
37    H37     15.3771   10.8204   27.1657 H       1  <1>   0.0367
38    H38     17.6488   11.9783   25.4621 H       1  <1>   0.0607
39    H39     16.2634   13.1620   27.8672 H       1  <1>   0.1858
40    H40     16.7681   18.7168   26.2969 H       1  <1>   0.0255
41    H41     15.4227   17.7657   26.9992 H       1  <1>   0.0255
42    H42     17.0056   17.8634   27.8535 H       1  <1>   0.0255
43    H43     18.7561   17.5806   25.3540 H       1  <1>   0.0255
44    H44     19.0105   16.7177   26.9027 H       1  <1>   0.0255
45    H45     18.8736   15.7935   25.3625 H       1  <1>   0.0255
46    H46     16.5802   17.4463   24.1797 H       1  <1>   0.0255
47    H47     16.6795   15.6581   24.1783 H       1  <1>   0.0255
48    H48     15.2333   16.4846   24.8642 H       1  <1>   0.0255
@<TRIPOS>BOND
1     1     2     1
2     1     3     ar
3     1     4     ar
4     2     5     1
5     2     6     1
6     3     7     ar
7     3     8     1
8     4     9     ar
9     5     10    2
10    6     11    2
11    7     12    ar
12    8     13    2
13    8     14    2
14    10    15    1
15    12    16    1
16    15    17    1
17    16    18    2
18    16    19    2
19    17    20    1
20    17    21    1
21    20    22    1
22    21    23    1
23    21    24    1
24    22    25    1
25    22    26    2
26    25    27    1
27    27    28    1
28    27    29    1
29    27    30    1
30    9     12    ar
31    10    11    1
32    4     31    1
33    5     32    1
34    6     33    1
35    7     34    1
36    9     35    1
37    15    36    1
38    15    37    1
39    17    38    1
40    20    39    1
41    28    40    1
42    28    41    1
43    28    42    1
44    29    43    1
45    29    44    1
46    29    45    1
47    30    46    1
48    30    47    1
49    30    48    1
@<TRIPOS>SUBSTRUCTURE
1   ****   1     TEMP       0   ****  **** 


########## Number      : 49
########## Source num  : 863
########## Name        : MFCD00005779
########## Description : DIRECT_YELLOW_8
########## Reflect     : 0
########## Energy score                             :     -26.82
##########   van der Waals component                      -20.77
##########   electrostatic component                       -6.06
########## RMSD from input orientation (A)          :      34.73

@<TRIPOS>MOLECULE
MFCD00005779
54    57    1     0     0    
SMALL
GASTEIGER
****
DIRECT_YELLOW_8
@<TRIPOS>ATOM
1     C1      18.3633    9.3726   25.4786 C.ar    1  <1>   0.0571
2     C2      18.8079    8.0691   25.2268 C.ar    1  <1>   0.0653
3     S3      16.7042    9.3561   24.9546 S.3     1  <1>  -0.0726
4     C4      19.2367   10.3150   26.0343 C.ar    1  <1>   0.0773
5     N5      17.9146    7.2241   24.6941 N.2     1  <1>  -0.2714
6     C6      20.1259    7.7081   25.5309 C.ar    1  <1>  -0.0258
7     C7      16.6828    7.6914   24.4489 C.2     1  <1>   0.0917
8     C8      20.5548    9.9539   26.3384 C.ar    1  <1>  -0.0179
9     S9      18.6525   12.0281   26.3652 S.3     1  <1>   0.1105
10    C10     20.9994    8.6505   26.0867 C.ar    1  <1>  -0.0403
11    C11     15.5427    6.9470   23.8690 C.ar    1  <1>   0.0218
12    C12     21.4969   10.9705   26.9379 C.3     1  <1>  -0.0333
13    O13     18.9560   12.3826   27.7169 O.co2   1  <1>  -0.4057
14    O14     17.2389   12.0976   26.1601 O.co2   1  <1>  -0.4057
15    O15     19.3404   12.9799   25.4321 O.co2   1  <1>  -0.4057
16    C16     15.3513    6.9284   22.4822 C.ar    1  <1>  -0.0364
17    C17     14.6554    6.2613   24.7072 C.ar    1  <1>  -0.0364
18    C18     14.2728    6.2242   21.9338 C.ar    1  <1>  -0.0266
19    C19     13.5768    5.5571   24.1587 C.ar    1  <1>  -0.0266
20    C20     13.3856    5.5386   22.7719 C.ar    1  <1>   0.0731
21    N21     12.3070    4.8345   22.2235 N.2     1  <1>  -0.1950
22    N22     11.5148    4.2223   22.9719 N.2     1  <1>  -0.1740
23    C23     10.4362    3.5181   22.4234 C.2     1  <1>   0.1833
24    C24     10.2340    3.4985   20.9574 C.2     1  <1>   0.2756
25    C25      9.5870    2.8619   23.2257 C.2     1  <1>   0.0912
26    N26     11.0769    4.1499   20.1610 N.am    1  <1>  -0.2514
27    O27      9.2865    2.8798   20.4755 O.2     1  <1>  -0.3190
28    C28      8.4236    2.1024   22.6341 C.3     1  <1>  -0.0076
29    O29      9.7742    2.8800   24.5827 O.3     1  <1>  -0.3643
30    C30     10.8836    4.1311   18.7594 C.ar    1  <1>   0.0545
31    C31     11.4782    3.1285   17.9841 C.ar    1  <1>  -0.0410
32    C32     10.0977    5.1153   18.1480 C.ar    1  <1>  -0.0410
33    C33     11.2870    3.1100   16.5974 C.ar    1  <1>  -0.0671
34    C34      9.9064    5.0967   16.7613 C.ar    1  <1>  -0.0671
35    C35     10.5011    4.0940   15.9860 C.ar    1  <1>  -0.0693
36    H36     20.4702    6.6989   25.3359 H       1  <1>   0.0721
37    H37     22.0199    8.3709   26.3222 H       1  <1>   0.0709
38    H38     20.9642   11.9255   27.0576 H       1  <1>   0.0290
39    H39     21.8415   10.6266   27.9243 H       1  <1>   0.0290
40    H40     22.3586   11.1221   26.2713 H       1  <1>   0.0290
41    H41     16.0383    7.4593   21.8332 H       1  <1>   0.0693
42    H42     14.8034    6.2757   25.7810 H       1  <1>   0.0693
43    H43     14.1248    6.2099   20.8600 H       1  <1>   0.0701
44    H44     12.8899    5.0262   24.8078 H       1  <1>   0.0701
45    H45     11.8473    4.6529   20.5528 H       1  <1>   0.2016
46    H46      7.8493    1.6360   23.4481 H       1  <1>   0.0324
47    H47      7.7677    2.7915   22.0820 H       1  <1>   0.0324
48    H48      8.7932    1.3155   21.9602 H       1  <1>   0.0324
49    H49     10.5447    3.3989   24.7817 H       1  <1>   0.1995
50    H50     12.0867    2.3664   18.4576 H       1  <1>   0.0600
51    H51      9.6373    5.8917   18.7482 H       1  <1>   0.0600
52    H52     11.7473    2.3337   15.9970 H       1  <1>   0.0576
53    H53      9.2979    5.8587   16.2878 H       1  <1>   0.0576
54    H54     10.3530    4.0797   14.9123 H       1  <1>   0.0575
@<TRIPOS>BOND
1     1     2     ar
2     1     3     1
3     1     4     ar
4     2     5     1
5     2     6     ar
6     3     7     1
7     4     8     ar
8     4     9     1
9     6     10    ar
10    7     11    1
11    8     12    1
12    9     13    1
13    9     14    1
14    9     15    1
15    11    16    ar
16    11    17    ar
17    16    18    ar
18    17    19    ar
19    18    20    ar
20    20    21    1
21    21    22    2
22    22    23    1
23    23    24    1
24    23    25    2
25    24    26    1
26    24    27    2
27    25    28    1
28    25    29    1
29    26    30    1
30    30    31    ar
31    30    32    ar
32    31    33    ar
33    32    34    ar
34    33    35    ar
35    5     7     2
36    8     10    ar
37    19    20    ar
38    34    35    ar
39    6     36    1
40    10    37    1
41    12    38    1
42    12    39    1
43    12    40    1
44    16    41    1
45    17    42    1
46    18    43    1
47    19    44    1
48    26    45    1
49    28    46    1
50    28    47    1
51    28    48    1
52    29    49    1
53    31    50    1
54    32    51    1
55    33    52    1
56    34    53    1
57    35    54    1
@<TRIPOS>SUBSTRUCTURE
1   ****   1     TEMP       0   ****  **** 


########## Number      : 50
########## Source num  : 7636
########## Name        : MFCD00057111
########## Description : N4,2'-O-DIBUTYRYLCYTIDINE_3':5'-CYCLIC_MONOPHOSPHATE_SODIUM_SALT
########## Reflect     : 0
########## Energy score                             :     -26.73
##########   van der Waals component                      -15.20
##########   electrostatic component                      -11.52
########## RMSD from input orientation (A)          :      38.88

@<TRIPOS>MOLECULE
MFCD00057111
53    55    1     0     0    
SMALL
GASTEIGER
****
N4,2'-O-DIBUTYRYLCYTIDINE_3':5'-CYCLIC_MONOPHOSPHATE_SODIUM_SALT
@<TRIPOS>ATOM
1     C1      18.6957   17.9595   26.0974 C.3     1  <1>   0.1463
2     C2      18.8931   17.6251   24.6071 C.3     1  <1>   0.1828
3     C3      19.0158   16.6293   26.8041 C.3     1  <1>   0.1248
4     O4      19.5911   18.9931   26.5157 O.3     1  <1>  -0.2920
5     N5      17.7821   18.1756   23.8176 N.am    1  <1>  -0.2072
6     O6      18.9114   16.1995   24.4968 O.3     1  <1>  -0.3415
7     C7      19.5541   15.7224   25.6818 C.3     1  <1>   0.1143
8     O8      19.8233   16.5233   27.9796 O.3     1  <1>  -0.3121
9     C9      19.0763   20.0791   27.0369 C.2     1  <1>   0.2550
10    C10     16.5545   17.5387   23.8011 C.2     1  <1>   0.3201
11    C11     17.9545   19.3354   23.0841 C.2     1  <1>   0.0235
12    C12     19.5675   14.2406   26.1006 C.3     1  <1>   0.0843
13    P13     19.9055   15.0431   28.4968 P.3     1  <1>   0.2647
14    C14     19.9802   21.1990   27.4939 C.3     1  <1>   0.0462
15    O15     17.8665   20.1858   27.1528 O.2     1  <1>  -0.2965
16    N16     15.5366   18.0336   23.0840 N.2     1  <1>  -0.2062
17    O17     16.3957   16.5069   24.4515 O.2     1  <1>  -0.2966
18    C18     16.8829   19.8420   22.3392 C.2     1  <1>  -0.0084
19    O19     20.2688   14.0540   27.3328 O.3     1  <1>  -0.3181
20    O20     20.9037   14.9417   29.5711 O.co2   1  <1>  -0.5105
21    O21     18.5736   14.6366   29.1307 O.co2   1  <1>  -0.5105
22    C22     19.1334   22.3390   28.0579 C.3     1  <1>  -0.0418
23    C23     15.6636   19.1544   22.3607 C.2     1  <1>   0.1311
24    C24     20.0469   23.4707   28.5199 C.3     1  <1>  -0.0643
25    N25     14.5636   19.6437   21.6172 N.am    1  <1>  -0.2459
26    C26     13.7107   20.4978   22.1756 C.2     1  <1>   0.2123
27    C27     12.5367   21.0200   21.3822 C.3     1  <1>   0.0302
28    O28     13.8780   20.8623   23.3385 O.2     1  <1>  -0.3308
29    C29     11.7206   21.9767   22.2502 C.3     1  <1>  -0.0456
30    C30     10.5343   22.5044   21.4484 C.3     1  <1>  -0.0647
31    H31     17.6648   18.2837   26.3019 H       1  <1>   0.0660
32    H32     19.8485   18.0317   24.2442 H       1  <1>   0.0926
33    H33     18.0449   16.2295   27.1317 H       1  <1>   0.0653
34    H34     20.6159   15.9680   25.5325 H       1  <1>   0.0647
35    H35     18.9145   19.8495   23.0860 H       1  <1>   0.0744
36    H36     18.5334   13.8896   26.2329 H       1  <1>   0.0591
37    H37     20.0686   13.6463   25.3223 H       1  <1>   0.0591
38    H38     20.6565   20.8348   28.2812 H       1  <1>   0.0432
39    H39     20.5649   21.5774   26.6426 H       1  <1>   0.0432
40    H40     16.9956   20.7536   21.7541 H       1  <1>   0.0626
41    H41     18.4577   22.7223   27.2792 H       1  <1>   0.0273
42    H42     18.5491   21.9796   28.9177 H       1  <1>   0.0273
43    H43     19.4298   24.2866   28.9242 H       1  <1>   0.0230
44    H44     20.7232   23.1088   29.3083 H       1  <1>   0.0230
45    H45     20.6318   23.8514   27.6697 H       1  <1>   0.0230
46    H46     14.4275   19.3473   20.6719 H       1  <1>   0.2034
47    H47     12.8973   21.5629   20.4961 H       1  <1>   0.0384
48    H48     11.8934   20.1830   21.0733 H       1  <1>   0.0384
49    H49     11.3432   21.4462   23.1368 H       1  <1>   0.0269
50    H50     12.3471   22.8262   22.5598 H       1  <1>   0.0269
51    H51      9.9525   23.1919   22.0800 H       1  <1>   0.0230
52    H52     10.8928   23.0488   20.5624 H       1  <1>   0.0230
53    H53      9.8889   21.6689   21.1395 H       1  <1>   0.0230
@<TRIPOS>BOND
1     1     2     1
2     1     3     1
3     1     4     1
4     2     5     1
5     2     6     1
6     3     7     1
7     3     8     1
8     4     9     1
9     5     10    1
10    5     11    1
11    7     12    1
12    8     13    1
13    9     14    1
14    9     15    2
15    10    16    1
16    10    17    2
17    11    18    2
18    12    19    1
19    13    20    1
20    13    21    1
21    14    22    1
22    16    23    2
23    22    24    1
24    23    25    1
25    25    26    1
26    26    27    1
27    26    28    2
28    27    29    1
29    29    30    1
30    6     7     1
31    13    19    1
32    18    23    1
33    1     31    1
34    2     32    1
35    3     33    1
36    7     34    1
37    11    35    1
38    12    36    1
39    12    37    1
40    14    38    1
41    14    39    1
42    18    40    1
43    22    41    1
44    22    42    1
45    24    43    1
46    24    44    1
47    24    45    1
48    25    46    1
49    27    47    1
50    27    48    1
51    29    49    1
52    29    50    1
53    30    51    1
54    30    52    1
55    30    53    1
@<TRIPOS>SUBSTRUCTURE
1   ****   1     TEMP       0   ****  **** 
