#       Name:                Fetocpp_A
#       Creating user name   victor
#       Creation time:       Thu May  3 19:04:45 2012


#       File generated by GOLD software.
#

@<TRIPOS>MOLECULE
Fetocpp_A|AAAB|mol2|1|dock1
   103   114     1
SMALL
NO_CHARGES


@<TRIPOS>ATOM
      1 C           33.1588   3.7662  21.3151 C.ar           1                   -0.1360
      2 H           34.1531   3.8681  20.8877 H              1                    0.1500
      3 C           32.7570   3.2516  22.6547 C.ar           1                    0.3710
      4 C           33.8483   2.7747  23.5941 C.ar           1                    0.0310
      5 C           35.3032   2.8204  23.1748 C.ar           1                    0.0280
      6 C           33.4959   2.3155  24.8060 C.ar           1                   -0.1970
      7 N           31.4413   3.2869  22.8181 N.pl3          1                   -0.1130
      8 C           30.8554   3.8170  21.6029 C.ar           1                    0.2890
      9 C           31.9929   4.0875  20.7302 C.ar           1                   -0.1500
     10 H           31.9346   4.5001  19.7202 H              1                    0.1500
     11 C           34.4103   1.8692  25.7591 C.ar           1                   -0.1500
     12 H           35.4978   1.8303  25.6791 H              1                    0.1500
     13 C           33.6983   1.4537  26.9206 C.ar           1                   -0.1500
     14 H           34.1876   1.0665  27.8155 H              1                    0.1500
     15 C           32.3331   1.6338  26.7012 C.ar           1                   -0.1970
     16 C           31.3862   1.3307  27.6038 C.ar           1                    0.0310
     17 C           31.7590   0.7481  28.9519 C.ar           1                    0.0280
     18 C           29.9344   1.5883  27.2474 C.ar           1                    0.3710
     19 N           32.1730   2.1879  25.3747 N.pl3          1                    0.1990
     20 N           29.4005   2.0802  26.1374 N.pl3          1                   -0.1130
     21 C           27.9605   2.0985  26.3047 C.ar           1                    0.2890
     22 C           26.9821   2.4956  25.4473 C.ar           1                    0.0170
     23 C           25.5293   2.3918  25.8797 C.ar           1                    0.0280
     24 C           27.2902   3.0280  24.1239 C.ar           1                   -0.1970
     25 C           27.7367   1.5639  27.6442 C.ar           1                   -0.1500
     26 H           26.7637   1.4309  28.1207 H              1                    0.1500
     27 C           28.8923   1.2443  28.2542 C.ar           1                   -0.1360
     28 H           29.0098   0.8305  29.2523 H              1                    0.1500
     29 C           26.3912   3.5017  23.1648 C.ar           1                   -0.1500
     30 H           25.3079   3.5467  23.2697 H              1                    0.1500
     31 C           27.0991   3.9242  22.0171 C.ar           1                   -0.1500
     32 H           26.6297   4.3375  21.1240 H              1                    0.1500
     33 C           28.4687   3.7313  22.2106 C.ar           1                   -0.1970
     34 C           29.5511   4.0281  21.2764 C.ar           1                    0.0170
     35 C           29.2090   4.5924  19.9085 C.ar           1                    0.0280
     36 N           28.6252   3.1727  23.5512 N.pl3          1                    0.1990
     37 C           24.8231   3.4089  26.5710 C.ar           1                    0.0860
     38 C           23.4842   3.1853  26.9479 C.ar           1                   -0.1500
     39 H           22.9114   3.9520  27.4701 H              1                    0.1500
     40 C           22.8495   1.9742  26.6663 C.ar           1                   -0.1500
     41 H           21.8139   1.8177  26.9673 H              1                    0.1500
     42 C           23.5427   0.9642  26.0087 C.ar           1                   -0.1500
     43 H           23.0514   0.0153  25.7997 H              1                    0.1500
     44 C           24.8716   1.1658  25.6221 C.ar           1                   -0.1500
     45 H           25.3857   0.3414  25.1234 H              1                    0.1500
     46 C           31.9631  -0.6327  29.2013 C.ar           1                    0.0860
     47 C           32.3375  -1.0541  30.4925 C.ar           1                   -0.1500
     48 H           32.4914  -2.1095  30.7176 H              1                    0.1500
     49 C           32.5218  -0.1305  31.5244 C.ar           1                   -0.1500
     50 H           32.8134  -0.4739  32.5165 H              1                    0.1500
     51 C           32.3394   1.2256  31.2826 C.ar           1                   -0.1500
     52 H           32.4930   1.9457  32.0852 H              1                    0.1500
     53 C           31.9642   1.6653  30.0085 C.ar           1                   -0.1500
     54 H           31.8489   2.7410  29.8567 H              1                    0.1500
     55 C           36.0061   1.7363  22.5914 C.ar           1                    0.0860
     56 C           37.3693   1.8876  22.2706 C.ar           1                   -0.1500
     57 H           37.9331   1.0757  21.8126 H              1                    0.1500
     58 C           38.0391   3.0849  22.5288 C.ar           1                   -0.1500
     59 H           39.0949   3.1850  22.2769 H              1                    0.1500
     60 C           37.3600   4.1465  23.1146 C.ar           1                   -0.1500
     61 H           37.8863   5.0780  23.3256 H              1                    0.1500
     62 C           36.0058   4.0184  23.4390 C.ar           1                   -0.1500
     63 H           35.5155   4.8712  23.9143 H              1                    0.1500
     64 C           29.1976   6.0006  19.7822 C.ar           1                   -0.1500
     65 H           29.4362   6.6472  20.6307 H              1                    0.1500
     66 C           28.8680   6.6155  18.5702 C.ar           1                   -0.1500
     67 H           28.8672   7.7023  18.4914 H              1                    0.1500
     68 C           28.5338   5.8404  17.4656 C.ar           1                   -0.1500
     69 H           28.2761   6.3185  16.5215 H              1                    0.1500
     70 C           28.5207   4.4478  17.5719 C.ar           1                   -0.1500
     71 H           28.2493   3.8726  16.6872 H              1                    0.1500
     72 C           28.8466   3.8083  18.7839 C.ar           1                    0.0860
     73 C           35.3350   0.4519  22.3066 C.2            1                    0.6340
     74 O           34.2765   0.3453  21.7046 O.co2          1                   -0.5700
     75 O           36.0097  -0.6165  22.7911 O.co2          1                   -0.6500
     76 C           28.8065   2.3336  18.8544 C.2            1                    0.6340
     77 O           29.7061   1.6355  19.2989 O.co2          1                   -0.5700
     78 O           27.6496   1.8136  18.3794 O.co2          1                   -0.6500
     79 C           31.7852  -1.6381  28.1366 C.2            1                    0.6340
     80 O           32.3063  -1.5741  27.0326 O.co2          1                   -0.5700
     81 O           30.9802  -2.6622  28.5039 O.co2          1                   -0.6500
     82 C           25.4607   4.6989  26.9022 C.2            1                    0.6340
     83 O           26.0775   5.3927  26.1070 O.co2          1                   -0.5700
     84 O           25.3036   5.0476  28.2008 O.co2          1                   -0.6500
     85 A           30.4070   2.6899  24.4720 A.2            1                    0.0000
     86 H           30.4494   2.9768  24.5486 H              1                    0.0000
     87 H           30.3645   2.4029  24.3954 H              1                    0.0000
     88 ****        33.8761  -0.5585  21.5534 LP             1                    0.0000
     89 ****        33.8109   1.1619  21.3633 LP             1                    0.0000
     90 ****        35.6450  -1.5387  22.6621 LP             1                    0.0000
     91 ****        36.8730  -0.4839  23.2780 LP             1                    0.0000
     92 ****        29.6028   0.6410  19.3211 LP             1                    0.0000
     93 ****        30.5453   2.0587  19.6403 LP             1                    0.0000
     94 ****        27.5072   0.8238  18.3840 LP             1                    0.0000
     95 ****        26.9379   2.4195  18.0240 LP             1                    0.0000
     96 ****        32.1441  -2.2966  26.3605 LP             1                    0.0000
     97 ****        32.8948  -0.7993  26.8017 LP             1                    0.0000
     98 ****        30.7919  -3.4053  27.8618 LP             1                    0.0000
     99 ****        30.5737  -2.6758  29.4175 LP             1                    0.0000
    100 ****        26.4884   6.2532  26.4080 LP             1                    0.0000
    101 ****        26.1711   5.0997  25.1555 LP             1                    0.0000
    102 ****        25.6995   5.9007  28.5408 LP             1                    0.0000
    103 ****        24.7917   4.4522  28.8200 LP             1                    0.0000
@<TRIPOS>BOND
    1    1    9 ar    
    2    8    9 ar    
    3    8   34 1     
    4   34   35 1     
    5   35   72 ar    
    6   72   76 1     
    7   76   78 ar    
    8   76   77 ar    
    9   70   72 ar    
   10   70   71 1     
   11   68   70 ar    
   12   68   69 1     
   13   66   68 ar    
   14   64   66 ar    
   15   64   65 1     
   16   35   64 ar    
   17   66   67 1     
   18   33   34 1     
   19   33   36 ar    
   20   36   85 1     
   21   85   87 1     
   22   85   86 1     
   23   20   85 1     
   24   20   21 ar    
   25   21   25 ar    
   26   25   27 ar    
   27   27   28 1     
   28   18   27 ar    
   29   18   20 ar    
   30   16   18 1     
   31   16   17 1     
   32   17   53 ar    
   33   53   54 1     
   34   51   53 ar    
   35   51   52 1     
   36   49   51 ar    
   37   49   50 1     
   38   47   49 ar    
   39   47   48 1     
   40   46   47 ar    
   41   46   79 1     
   42   79   81 ar    
   43   79   80 ar    
   44   17   46 ar    
   45   15   16 1     
   46   15   19 ar    
   47   85   19 1     
   48    6   19 ar    
   49    6   11 ar    
   50   11   13 ar    
   51   13   15 ar    
   52   13   14 1     
   53   11   12 1     
   54    4    6 1     
   55    4    5 1     
   56    5   62 ar    
   57   62   63 1     
   58   60   62 ar    
   59   60   61 1     
   60   58   60 ar    
   61   58   59 1     
   62   56   58 ar    
   63   55   56 ar    
   64   55   73 1     
   65   73   75 ar    
   66   73   74 ar    
   67    5   55 ar    
   68   56   57 1     
   69    3    4 1     
   70    3    7 ar    
   71    7   85 1     
   72    7    8 ar    
   73    1    3 ar    
   74   25   26 1     
   75   21   22 1     
   76   22   24 1     
   77   24   36 ar    
   78   24   29 ar    
   79   29   31 ar    
   80   31   33 ar    
   81   31   32 1     
   82   29   30 1     
   83    9   10 1     
   84    1    2 1     
   85   22   23 1     
   86   23   44 ar    
   87   44   45 1     
   88   42   44 ar    
   89   42   43 1     
   90   40   42 ar    
   91   40   41 1     
   92   38   40 ar    
   93   38   39 1     
   94   37   38 ar    
   95   37   82 1     
   96   82   84 ar    
   97   82   83 ar    
   98   23   37 ar    
   99   74   88 1     
  100   74   89 1     
  101   75   90 1     
  102   75   91 1     
  103   77   92 1     
  104   77   93 1     
  105   78   94 1     
  106   78   95 1     
  107   80   96 1     
  108   80   97 1     
  109   81   98 1     
  110   81   99 1     
  111   83  100 1     
  112   83  101 1     
  113   84  102 1     
  114   84  103 1     
@<TRIPOS>SUBSTRUCTURE
      1 01            85
@<TRIPOS>SET
LONE_PAIRS      STATIC     ATOMS    <user>   **** ""
16 88 89 90 91 92 93 94 95 96 97 98 99 100 101 102 103
DONOR_HYDROGENS      STATIC     ATOMS    <user>   **** ""
2 87 86
ATOM$BLUE        STATIC     ATOMS    COLORGROUP SYSTEM
16 88 89 90 91 92 93 94 95 96 97 98 99 100 101 102 103
ATOM$RED        STATIC     ATOMS    COLORGROUP SYSTEM
2 87 86
@<TRIPOS>COMMENT
> <Gold.Version>
5.0.1

> <Gold.Id.Protein>
combination|A3_protein|mol2

> <Gold.Protein.RotatedTorsions>
[ 5646  116  115  113 ] final -166.91 input -117.00 | X-H torsion
[ 5267   46   45   42 ] final  158.00 input   59.14 | X-H torsion
[ 5824    1    2    5 ] final -161.51 input  180.00 | X-H torsion
[ 5159  260  259  257 ] final -150.62 input   96.92 | X-H torsion
[ 5211  286  285  284 ] final -171.87 input  180.00 | X-H torsion
[ 5185  714  713  710 ] final   27.69 input  180.00 | X-H torsion
[ 5905 2201 2200 2197 ] final  -31.70 input  180.00 | X-H torsion
[ 5745 1773 1772 1771 ] final   46.93 input  180.00 | X-H torsion
[ 5865 1488 1489 1492 ] final  133.96 input  180.00 | X-H torsion
[ 5254 1747 1746 1744 ] final   58.61 input   96.90 | X-H torsion
[ 5178 1533 1532 1529 ] final -120.40 input   59.14 | X-H torsion
[ 5805 1603 1602 1600 ] final  -28.50 input -117.00 | X-H torsion
[ 5858  204  203  201 ] final  -53.79 input  -60.01 | X-H torsion

> <Gold.Protein.ActiveResidues>
 HIS12   HIS13   HIS14   THR16   LYS20   TYR24   TYR34   ARG37   ALA38   TYR41  
 ALA42   GLY44   LYS45   ILE46   GLY47   TRP65   ARG68   ALA69   ASP72   ALA73  
 GLY75   GLN76   ILE77   GLY78   TRP96   GLN99   SER100  VAL103  ALA104  GLY106 
 GLN107  ILE108  GLY109  TRP126  PHE127  ILE130  ALA131  PHE134  GLY137  GLU138 
 ILE139  GLY140  TRP158  GLN161  SER162  ASP165  ALA166  GLY168  GLU169  ILE170 
 HIS12   HIS13   HIS14   HIS15   THR16   LYS20   TYR24   ARG37   ALA38   TYR41  
 ALA42   GLY44   LYS45   ILE46   GLY47   ASP48   GLU49   ARG50   ILE56   TRP65  
 ARG68   ALA69   ASP72   ALA73   GLY75   GLN76   ILE77   GLY78   ASP79   GLU80  
 ARG81   GLU84   PRO85   ILE87   TRP96   GLN99   SER100  VAL103  ALA104  GLY106 
 GLN107  ILE108  GLY109  ASP110  GLU111  ARG112  VAL114  GLU115  PRO116  TRP126 
 PHE127  ILE130  ALA131  PHE134  GLY137  GLU138  ILE139  GLY140  ASP141  GLU142 
 TRP158  GLN161  SER162  ALA164  ASP165  ALA166  LEU167  GLY168  GLU169  ILE170 
 GLY171  HIS201 

> <Gold.Protein.RotatedAtoms>
   20.3758   -0.3468   16.6317 H   0  0  0  0  0  0  0  0  0  0  0  0  # atno 5159 bound_to 260 
   46.2730   -8.6661    4.8841 H   0  0  0  0  0  0  0  0  0  0  0  0  # atno 5178 bound_to 1533
   28.4969    8.4592   25.1658 H   0  0  0  0  0  0  0  0  0  0  0  0  # atno 5185 bound_to 714 
   23.8897    1.7148   16.5146 H   0  0  0  0  0  0  0  0  0  0  0  0  # atno 5211 bound_to 286 
   24.1514    2.5076   15.0923 H   0  0  0  0  0  0  0  0  0  0  0  0  # atno 5212 bound_to 286 
   22.8964    2.9526   16.0657 H   0  0  0  0  0  0  0  0  0  0  0  0  # atno 5213 bound_to 286 
   43.5463    0.5444   18.2213 H   0  0  0  0  0  0  0  0  0  0  0  0  # atno 5254 bound_to 1747
   18.7270    9.3283    3.9769 H   0  0  0  0  0  0  0  0  0  0  0  0  # atno 5267 bound_to 46  
   12.2823    3.3694   13.5310 H   0  0  0  0  0  0  0  0  0  0  0  0  # atno 5646 bound_to 116 
   41.6278   -3.0804   15.7575 H   0  0  0  0  0  0  0  0  0  0  0  0  # atno 5745 bound_to 1773
   41.0193   -1.8528   16.6755 H   0  0  0  0  0  0  0  0  0  0  0  0  # atno 5746 bound_to 1773
   40.3054   -2.2413   15.2403 H   0  0  0  0  0  0  0  0  0  0  0  0  # atno 5747 bound_to 1773
   52.4378   -3.5632   15.2093 H   0  0  0  0  0  0  0  0  0  0  0  0  # atno 5805 bound_to 1603
   21.6528   -2.1172    3.6331 H   0  0  0  0  0  0  0  0  0  0  0  0  # atno 5824 bound_to 1   
   23.2429   -2.2271    4.0567 H   0  0  0  0  0  0  0  0  0  0  0  0  # atno 5825 bound_to 1   
   22.0973   -1.9661    5.2142 H   0  0  0  0  0  0  0  0  0  0  0  0  # atno 5826 bound_to 1   
   13.6697    1.3952   22.7371 H   0  0  0  0  0  0  0  0  0  0  0  0  # atno 5858 bound_to 204 
   43.1879    1.9735    4.6169 H   0  0  0  0  0  0  0  0  0  0  0  0  # atno 5865 bound_to 1488
   41.5710    2.1016    4.9150 H   0  0  0  0  0  0  0  0  0  0  0  0  # atno 5866 bound_to 1488
   42.1381    2.2353    3.3720 H   0  0  0  0  0  0  0  0  0  0  0  0  # atno 5867 bound_to 1488
   36.2603   -8.0005   24.4059 H   0  0  0  0  0  0  0  0  0  0  0  0  # atno 5905 bound_to 2201
   10.9917    3.6534   14.4338 LP  0  0  0  0  0  0  0  0  0  0  0  0  # atno 5935 bound_to 116 
   12.4673    3.4975   15.1155 LP  0  0  0  0  0  0  0  0  0  0  0  0  # atno 5936 bound_to 116 
   18.6243    7.9011    3.2600 LP  0  0  0  0  0  0  0  0  0  0  0  0  # atno 5966 bound_to 46  
   18.2557    8.0671    4.8421 LP  0  0  0  0  0  0  0  0  0  0  0  0  # atno 5967 bound_to 46  
   20.6295   -0.7242   18.1661 LP  0  0  0  0  0  0  0  0  0  0  0  0  # atno 5986 bound_to 260 
   21.7925    0.0094   17.2854 LP  0  0  0  0  0  0  0  0  0  0  0  0  # atno 5987 bound_to 260 
   27.5511    8.0027   23.9581 LP  0  0  0  0  0  0  0  0  0  0  0  0  # atno 6022 bound_to 714 
   26.9911    8.9997   25.1238 LP  0  0  0  0  0  0  0  0  0  0  0  0  # atno 6023 bound_to 714 
   37.7739   -8.5130   24.3176 LP  0  0  0  0  0  0  0  0  0  0  0  0  # atno 6082 bound_to 2201
   36.8114   -8.9675   25.5560 LP  0  0  0  0  0  0  0  0  0  0  0  0  # atno 6083 bound_to 2201
   43.0397   -0.0658   16.8312 LP  0  0  0  0  0  0  0  0  0  0  0  0  # atno 6116 bound_to 1747
   44.5359    0.5748   16.9639 LP  0  0  0  0  0  0  0  0  0  0  0  0  # atno 6117 bound_to 1747
   45.7948   -9.1044    3.4210 LP  0  0  0  0  0  0  0  0  0  0  0  0  # atno 6136 bound_to 1533
   46.1997   -7.5540    3.7356 LP  0  0  0  0  0  0  0  0  0  0  0  0  # atno 6137 bound_to 1533
   52.0849   -3.3300   13.6658 LP  0  0  0  0  0  0  0  0  0  0  0  0  # atno 6152 bound_to 1603
   53.6223   -3.6189   14.1345 LP  0  0  0  0  0  0  0  0  0  0  0  0  # atno 6153 bound_to 1603

> <Gold.Score>
     Score         DG    S(hbond)    S(metal)    S(lipo)     H(rot)  DE(clash)    DE(int)
     40.12     -48.67       0.00        0.00     369.14       0.00       5.01       3.54

> <Gold.Chemscore.Fitness>
40.1208

> <Gold.Chemscore.DG>
-48.6696

> <Gold.Chemscore.ZeroCoef>
-5.4800

> <Gold.Chemscore.Hbond>
0.0000

> <Gold.Chemscore.Metal>
0.0000

> <Gold.Chemscore.Lipo>
369.1422

> <Gold.Chemscore.Internal_Hbond>
0.0000

> <Gold.Chemscore.DEClash>
5.0082

> <Gold.Chemscore.DEInternal>
3.5406

> <Gold.Chemscore.Rot>
0.0000

> <Gold.Chemscore.Hbond.Weighted>
-0.0000

> <Gold.Chemscore.Metal.Weighted>
-0.0000

> <Gold.Chemscore.Lipo.Weighted>
-43.1896

> <Gold.Chemscore.Internal_Hbond.Weighted>
0.0000

> <Gold.Chemscore.DEClash.Weighted>
5.0082

> <Gold.Chemscore.DEInternal.Weighted>
3.5406

> <Gold.Chemscore.Rot.Weighted>
0.0000

