##########                 Name:                  119
##########          Protonation:                 none
##########               SMILES:   c1cc(c(cc1NS(=O)(=O)c2ccsc2C(=O)O)Cl)Cl
##########            Long Name:   3-[(3,4-dichlorophenyl)sulfamoyl]thiophene-2-carboxylic
##########          FlexRecCode: 1
##########               Number:                    3
##########   Ligand Source File: ./ligands-ampc-0000001.db2.gz
##########           GlobalRank: 2
##########                 Rank:                    1
##########               Setnum:                   31
##########             Matchnum:                 5372
##########                Cloud:                    1
##########        Electrostatic:           -84.181961
##########                 Gist:             5.035127
##########        Van der Waals:           -25.958271
##########  Ligand Polar Desolv:            59.740692
########## Ligand Apolar Desolv:            -2.284847
##########      Internal Energy:             0.000000
##########      Receptor Energy: 0.0
########## Receptor Desolvation:             0.000000
########## Receptor Hydrophobic:             0.000000
##########         Total Energy: -47.65
##########        Ligand Charge:            -2.000000
##########            Arbitrary:    +999.9990
##########     heavy atom count:   20
##########           pose count:    1
##########        Ligand Energy:             0.000000

@<TRIPOS>MOLECULE
              119      none
   25    26     0     0     0

@<TRIPOS>ATOM
      1 C1         42.9919    40.3370    39.0672 C.ar       1  LIG1  -0.1730
      2 C2         43.8291    40.0906    40.1381 C.ar       1  LIG1  -0.0565
      3 C3         45.1293    40.5631    40.1247 C.ar       1  LIG1  -0.1535
      4 C4         45.5954    41.2841    39.0378 C.ar       1  LIG1   0.0448
      5 C5         44.7620    41.5329    37.9638 C.ar       1  LIG1  -0.2556
      6 C6         43.4562    41.0597    37.9758 C.ar       1  LIG1   0.3110     
      7 N1         42.6110    41.3101    36.8916 N.2        1  LIG1  -1.0473
      8 S1         42.8068    42.6850    35.9896 S.o2       1  LIG1   2.6410
      9 O1         41.5525    42.9509    35.3770 O.2        1  LIG1  -1.0538
     10 O2         43.4619    43.6292    36.8252 O.2        1  LIG1  -0.9904
     11 C7         43.9306    42.2989    34.6885 C.2        1  LIG1  -0.6611
     12 C8         45.2041    42.8086    34.6486 C.2        1  LIG1  -0.0929
     13 C9         46.0187    42.4702    33.6168 C.2        1  LIG1  -0.3099
     14 S2         45.0805    41.4491    32.6683 S.3        1  LIG1   0.1602
     15 C10        43.5860    41.4543    33.6402 C.2        1  LIG1  -0.0463
     16 C11        42.3640    40.7755    33.4040 C.2        1  LIG1   0.5273
     17 O3         41.4807    41.3145    32.7484 O.co2      1  LIG1  -0.5959
     18 O4         42.1915    39.6499    33.8556 O.co2      1  LIG1  -0.6931
     19 Cl1        47.2274    41.8759    39.0248 Cl         1  LIG1  -0.1007
     20 Cl2        46.1781    40.2523    41.4728 Cl         1  LIG1  -0.1128
     21 H1         41.9784    39.9642    39.0769 H          1  LIG1   0.1243
     22 H2         43.4681    39.5287    40.9868 H          1  LIG1   0.1185
     23 H3         45.1254    42.0954    37.1165 H          1  LIG1   0.1132
     24 H4         45.5534    43.4703    35.4274 H          1  LIG1   0.1303
     25 H5         47.0372    42.7857    33.4447 H          1  LIG1   0.1723
@<TRIPOS>BOND
     1    1    6 ar
     2    1    2 ar
     3    1   21 1
     4    2    3 ar
     5    2   22 1
     6    3    4 ar
     7    3   20 1
     8    4    5 ar
     9    4   19 1
    10    5    6 ar
    11    5   23 1
    12    6    7 1
    13    7    8 1
    14    8    9 2
    15    8   10 2
    16    8   11 1
    17   11   15 2
    18   11   12 1
    19   12   13 2
    20   12   24 1
    21   13   14 1
    22   13   25 1
    23   14   15 1
    24   15   16 1
    25   16   17 2
    26   16   18 1
##########                 Name:                  111
##########          Protonation:                 none
##########               SMILES:   c1ccc(cc1)CNS(=O)(=O)c2ccsc2C(=O)O
##########            Long Name:   3-(benzylsulfamoyl)thiophene-2-carboxylic
##########          FlexRecCode: 1
##########               Number:                   42
##########   Ligand Source File: ./ligands-ampc-0000001.db2.gz
##########           GlobalRank: 2
##########                 Rank:                    1
##########               Setnum:                   53
##########             Matchnum:                 1677
##########                Cloud:                    1
##########        Electrostatic:           -57.961304
##########                 Gist:             5.723661
##########        Van der Waals:           -23.735542
##########  Ligand Polar Desolv:            29.617517
########## Ligand Apolar Desolv:            -1.294512
##########      Internal Energy:             0.000000
##########      Receptor Energy: 0.0
########## Receptor Desolvation:             0.000000
########## Receptor Hydrophobic:             0.000000
##########         Total Energy: -47.65
##########        Ligand Charge:            -1.000000
##########            Arbitrary:    +999.9990
##########     heavy atom count:   19
##########           pose count:    1
##########        Ligand Energy:             0.000000

@<TRIPOS>MOLECULE
              111      none
   29    30     0     0     0



@<TRIPOS>ATOM
      1 C1         46.7463    41.2122    42.5213 C.ar       1  LIG1  -0.1196
      2 C2         47.5871    41.3490    41.4325 C.ar       1  LIG1  -0.1227
      3 C3         47.0574    41.5289    40.1684 C.ar       1  LIG1  -0.0967
      4 C4         45.6870    41.5720    39.9930 C.ar       1  LIG1  -0.0898
      5 C5         44.8462    41.4342    41.0816 C.ar       1  LIG1  -0.1031
      6 C6         45.3758    41.2557    42.3459 C.ar       1  LIG1  -0.1262
      7 C7         45.1094    41.7692    38.6151 C.3        1  LIG1   0.1606
      8 N1         43.8080    41.1018    38.5308 N.pl3      1  LIG1  -1.0932
      9 S1         42.4476    41.9806    38.1855 S.o2       1  LIG1   2.7260
     10 O1         41.3885    41.0458    38.0317 O.2        1  LIG1  -0.9366
     11 O2         42.3974    43.0400    39.1313 O.2        1  LIG1  -0.9878
     12 C8         42.6951    42.7253    36.6079 C.2        1  LIG1  -0.7067
     13 C9         42.7862    44.0853    36.4488 C.2        1  LIG1  -0.1000
     14 C10        42.9772    44.5933    35.2046 C.2        1  LIG1  -0.2952
     15 S2         43.0390    43.2397    34.2114 S.3        1  LIG1   0.2178
     16 C11        42.8162    41.9729    35.4459 C.2        1  LIG1  -0.0655
     17 C12        42.7719    40.5652    35.2841 C.2        1  LIG1   0.5352
     18 O3         42.6067    39.8415    36.2585 O.co2      1  LIG1  -0.6379
     19 O4         42.8987    40.0726    34.1697 O.co2      1  LIG1  -0.6642
     20 H1         47.1601    41.0671    43.5082 H          1  LIG1   0.1188
     21 H2         48.6578    41.3154    41.5696 H          1  LIG1   0.1217
     22 H3         47.7143    41.6365    39.3180 H          1  LIG1   0.1271
     23 H4         43.7753    41.4681    40.9446 H          1  LIG1   0.1247
     24 H5         44.7190    41.1485    43.1964 H          1  LIG1   0.1204
     25 H6         44.9845    42.8348    38.4226 H          1  LIG1   0.0823
     26 H7         45.7850    41.3428    37.8736 H          1  LIG1   0.0666
     27 H8         43.7432    40.1451    38.6773 H          1  LIG1   0.4269
     28 H9         42.7067    44.7426    37.3020 H          1  LIG1   0.1369
     29 H10        43.0682    45.6307    34.9184 H          1  LIG1   0.1803
@<TRIPOS>BOND
     1    1    6 ar
     2    1    2 ar
     3    1   20 1
     4    2    3 ar
     5    2   21 1
     6    3    4 ar
     7    3   22 1
     8    4    5 ar
     9    4    7 1
    10    5    6 ar
    11    5   23 1
    12    6   24 1
    13    7    8 1
    14    7   25 1
    15    7   26 1
    16    8    9 1
    17    8   27 1
    18    9   10 2
    19    9   11 2
    20    9   12 1
    21   12   16 2
    22   12   13 1
    23   13   14 2
    24   13   28 1
    25   14   15 1
    26   14   29 1
    27   15   16 1
    28   16   17 1
    29   17   18 2
    30   17   19 1