##########                 Name:                  119
##########          Protonation:                 none
##########               SMILES:   c1cc(c(cc1NS(=O)(=O)c2ccsc2C(=O)O)Cl)Cl
##########            Long Name:   3-[(3,4-dichlorophenyl)sulfamoyl]thiophene-2-carboxylic
##########          FlexRecCode: 1
##########               Number:                    3
##########   Ligand Source File: ./ligands-ampc-0000001.db2.gz
##########           GlobalRank: 2
##########                 Rank:                    1
##########               Setnum:                   31
##########             Matchnum:                 5372
##########                Cloud:                    1
##########        Electrostatic:           -84.181961
##########                 Gist:             5.035127
##########        Van der Waals:           -25.958271
##########  Ligand Polar Desolv:            59.740692
########## Ligand Apolar Desolv:            -2.284847
##########      Internal Energy:             0.000000
##########      Receptor Energy: 0.0
########## Receptor Desolvation:             0.000000
########## Receptor Hydrophobic:             0.000000
##########         Total Energy: -47.65
##########        Ligand Charge:            -2.000000
##########            Arbitrary:    +999.9990
##########     heavy atom count:   20
##########           pose count:    1
##########        Ligand Energy:             0.000000

@<TRIPOS>MOLECULE
              119      none
   25    26     0     0     0

@<TRIPOS>ATOM
      1 C1         42.9919    40.3370    39.0672 C.ar       1  LIG1  -0.1730
      2 C2         43.8291    40.0906    40.1381 C.ar       1  LIG1  -0.0565
      3 C3         45.1293    40.5631    40.1247 C.ar       1  LIG1  -0.1535
      4 C4         45.5954    41.2841    39.0378 C.ar       1  LIG1   0.0448
      5 C5         44.7620    41.5329    37.9638 C.ar       1  LIG1  -0.2556
      6 C6         43.4562    41.0597    37.9758 C.ar       1  LIG1   0.3110     
      7 N1         42.6110    41.3101    36.8916 N.2        1  LIG1  -1.0473
      8 S1         42.8068    42.6850    35.9896 S.o2       1  LIG1   2.6410
      9 O1         41.5525    42.9509    35.3770 O.2        1  LIG1  -1.0538
     10 O2         43.4619    43.6292    36.8252 O.2        1  LIG1  -0.9904
     11 C7         43.9306    42.2989    34.6885 C.2        1  LIG1  -0.6611
     12 C8         45.2041    42.8086    34.6486 C.2        1  LIG1  -0.0929
     13 C9         46.0187    42.4702    33.6168 C.2        1  LIG1  -0.3099
     14 S2         45.0805    41.4491    32.6683 S.3        1  LIG1   0.1602
     15 C10        43.5860    41.4543    33.6402 C.2        1  LIG1  -0.0463
     16 C11        42.3640    40.7755    33.4040 C.2        1  LIG1   0.5273
     17 O3         41.4807    41.3145    32.7484 O.co2      1  LIG1  -0.5959
     18 O4         42.1915    39.6499    33.8556 O.co2      1  LIG1  -0.6931
     19 Cl1        47.2274    41.8759    39.0248 Cl         1  LIG1  -0.1007
     20 Cl2        46.1781    40.2523    41.4728 Cl         1  LIG1  -0.1128
     21 H1         41.9784    39.9642    39.0769 H          1  LIG1   0.1243
     22 H2         43.4681    39.5287    40.9868 H          1  LIG1   0.1185
     23 H3         45.1254    42.0954    37.1165 H          1  LIG1   0.1132
     24 H4         45.5534    43.4703    35.4274 H          1  LIG1   0.1303
     25 H5         47.0372    42.7857    33.4447 H          1  LIG1   0.1723
@<TRIPOS>BOND
     1    1    6 ar
     2    1    2 ar
     3    1   21 1
     4    2    3 ar
     5    2   22 1
     6    3    4 ar
     7    3   20 1
     8    4    5 ar
     9    4   19 1
    10    5    6 ar
    11    5   23 1
    12    6    7 1
    13    7    8 1
    14    8    9 2
    15    8   10 2
    16    8   11 1
    17   11   15 2
    18   11   12 1
    19   12   13 2
    20   12   24 1
    21   13   14 1
    22   13   25 1
    23   14   15 1
    24   15   16 1
    25   16   17 2
    26   16   18 1
##########                 Name:                  111
##########          Protonation:                 none
##########               SMILES:   c1ccc(cc1)CNS(=O)(=O)c2ccsc2C(=O)O
##########            Long Name:   3-(benzylsulfamoyl)thiophene-2-carboxylic
##########          FlexRecCode: 1
##########               Number:                   42
##########   Ligand Source File: ./ligands-ampc-0000001.db2.gz
##########           GlobalRank: 2
##########                 Rank:                    1
##########               Setnum:                   53
##########             Matchnum:                 1677
##########                Cloud:                    1
##########        Electrostatic:           -57.961304
##########                 Gist:             5.723661
##########        Van der Waals:           -23.735542
##########  Ligand Polar Desolv:            29.617517
########## Ligand Apolar Desolv:            -1.294512
##########      Internal Energy:             0.000000
##########      Receptor Energy: 0.0
########## Receptor Desolvation:             0.000000
########## Receptor Hydrophobic:             0.000000
##########         Total Energy: -47.65
##########        Ligand Charge:            -1.000000
##########            Arbitrary:    +999.9990
##########     heavy atom count:   19
##########           pose count:    1
##########        Ligand Energy:             0.000000

@<TRIPOS>MOLECULE
              111      none
   29    30     0     0     0



@<TRIPOS>ATOM
      1 C1         46.7463    41.2122    42.5213 C.ar       1  LIG1  -0.1196
      2 C2         47.5871    41.3490    41.4325 C.ar       1  LIG1  -0.1227
      3 C3         47.0574    41.5289    40.1684 C.ar       1  LIG1  -0.0967
      4 C4         45.6870    41.5720    39.9930 C.ar       1  LIG1  -0.0898
      5 C5         44.8462    41.4342    41.0816 C.ar       1  LIG1  -0.1031
      6 C6         45.3758    41.2557    42.3459 C.ar       1  LIG1  -0.1262
      7 C7         45.1094    41.7692    38.6151 C.3        1  LIG1   0.1606
      8 N1         43.8080    41.1018    38.5308 N.pl3      1  LIG1  -1.0932
      9 S1         42.4476    41.9806    38.1855 S.o2       1  LIG1   2.7260
     10 O1         41.3885    41.0458    38.0317 O.2        1  LIG1  -0.9366
     11 O2         42.3974    43.0400    39.1313 O.2        1  LIG1  -0.9878
     12 C8         42.6951    42.7253    36.6079 C.2        1  LIG1  -0.7067
     13 C9         42.7862    44.0853    36.4488 C.2        1  LIG1  -0.1000
     14 C10        42.9772    44.5933    35.2046 C.2        1  LIG1  -0.2952
     15 S2         43.0390    43.2397    34.2114 S.3        1  LIG1   0.2178
     16 C11        42.8162    41.9729    35.4459 C.2        1  LIG1  -0.0655
     17 C12        42.7719    40.5652    35.2841 C.2        1  LIG1   0.5352
     18 O3         42.6067    39.8415    36.2585 O.co2      1  LIG1  -0.6379
     19 O4         42.8987    40.0726    34.1697 O.co2      1  LIG1  -0.6642
     20 H1         47.1601    41.0671    43.5082 H          1  LIG1   0.1188
     21 H2         48.6578    41.3154    41.5696 H          1  LIG1   0.1217
     22 H3         47.7143    41.6365    39.3180 H          1  LIG1   0.1271
     23 H4         43.7753    41.4681    40.9446 H          1  LIG1   0.1247
     24 H5         44.7190    41.1485    43.1964 H          1  LIG1   0.1204
     25 H6         44.9845    42.8348    38.4226 H          1  LIG1   0.0823
     26 H7         45.7850    41.3428    37.8736 H          1  LIG1   0.0666
     27 H8         43.7432    40.1451    38.6773 H          1  LIG1   0.4269
     28 H9         42.7067    44.7426    37.3020 H          1  LIG1   0.1369
     29 H10        43.0682    45.6307    34.9184 H          1  LIG1   0.1803
@<TRIPOS>BOND
     1    1    6 ar
     2    1    2 ar
     3    1   20 1
     4    2    3 ar
     5    2   21 1
     6    3    4 ar
     7    3   22 1
     8    4    5 ar
     9    4    7 1
    10    5    6 ar
    11    5   23 1
    12    6   24 1
    13    7    8 1
    14    7   25 1
    15    7   26 1
    16    8    9 1
    17    8   27 1
    18    9   10 2
    19    9   11 2
    20    9   12 1
    21   12   16 2
    22   12   13 1
    23   13   14 2
    24   13   28 1
    25   14   15 1
    26   14   29 1
    27   15   16 1
    28   16   17 1
    29   17   18 2
    30   17   19 1
##########                 Name:                  310
##########          Protonation:                 none
##########               SMILES:   CCc1ccc(cc1)N2C[C@H](CC2=O)C(=O)O
##########            Long Name:   (3S)-1-(4-ethylphenyl)-5-oxo-pyrrolidine-3-carboxylic
##########          FlexRecCode: 1
##########               Number:                   94
##########   Ligand Source File: ./ligands-ampc-0000001.db2.gz
##########           GlobalRank: 3
##########                 Rank:                    1
##########               Setnum:                   17
##########             Matchnum:                  397
##########                Cloud:                    1
##########        Electrostatic:           -52.274567
##########                 Gist:             2.982445
##########        Van der Waals:           -21.036860
##########  Ligand Polar Desolv:            26.355072
########## Ligand Apolar Desolv:            -3.044687
##########      Internal Energy:             0.000000
##########      Receptor Energy: 0.0
########## Receptor Desolvation:             0.000000
########## Receptor Hydrophobic:             0.000000
##########         Total Energy: -47.02
##########        Ligand Charge:            -1.000000
##########            Arbitrary:    +999.9990
##########     heavy atom count:   17
##########           pose count:    1
##########        Ligand Energy:             0.000000

@<TRIPOS>MOLECULE
              310      none
   31    32     0     0     0



@<TRIPOS>ATOM
      1 C1         44.4134    41.8480    41.4589 C.3        1  LIG1  -0.1465
      2 C2         45.1424    40.9109    40.4938 C.3        1  LIG1  -0.0782
      3 C3         44.7595    41.2523    39.0768 C.ar       1  LIG1  -0.1211
      4 C4         45.4979    42.1817    38.3674 C.ar       1  LIG1  -0.0904
      5 C5         45.1495    42.4968    37.0686 C.ar       1  LIG1  -0.1601
      6 C6         44.0567    41.8788    36.4749 C.ar       1  LIG1   0.1721
      7 C7         43.3175    40.9454    37.1899 C.ar       1  LIG1  -0.1573
      8 C8         43.6740    40.6313    38.4867 C.ar       1  LIG1  -0.0898
      9 N1         43.7009    42.1961    35.1595 N.am       1  LIG1  -0.5616
     10 C9         44.1962    41.5085    33.9670 C.3        1  LIG1   0.1182
     11 C10        43.1672    41.8120    32.8722 C.3        1  LIG1  -0.1668
     12 H1         43.6323    41.8320    31.8866 H          1  LIG1   0.0871
     13 C11        42.7209    43.2133    33.3057 C.3        1  LIG1  -0.1263
     14 C12        42.8495    43.1734    34.8057 C.2        1  LIG1   0.5175
     15 O1         42.2741    43.9122    35.5766 O.2        1  LIG1  -0.5274
     16 C13        42.0208    40.8346    32.9126 C.2        1  LIG1   0.5059
     17 O2         42.2204    39.6734    33.2264 O.co2      1  LIG1  -0.6862
     18 O3         40.8938    41.2050    32.6317 O.co2      1  LIG1  -0.6892
     19 H2         44.6904    41.6012    42.4838 H          1  LIG1   0.0535
     20 H3         44.6937    42.8794    41.2451 H          1  LIG1   0.0548
     21 H4         43.3368    41.7310    41.3353 H          1  LIG1   0.0545
     22 H5         46.2191    41.0278    40.6175 H          1  LIG1   0.0677
     23 H6         44.8619    39.8795    40.7075 H          1  LIG1   0.0674
     24 H7         46.3476    42.6620    38.8297 H          1  LIG1   0.1207
     25 H8         45.7261    43.2233    36.5153 H          1  LIG1   0.1538
     26 H9         42.4669    40.4634    36.7311 H          1  LIG1   0.1278
     27 H10        43.1021    39.9024    39.0419 H          1  LIG1   0.1221
     28 H11        45.1746    41.8975    33.6849 H          1  LIG1   0.0794
     29 H12        44.2528    40.4347    34.1455 H          1  LIG1   0.0872
     30 H13        43.3763    43.9735    32.8806 H          1  LIG1   0.1010
     31 H14        41.6854    43.3929    33.0164 H          1  LIG1   0.1101
@<TRIPOS>BOND
     1    1    2 1
     2    1   19 1
     3    1   20 1
     4    1   21 1
     5    2    3 1
     6    2   22 1
     7    2   23 1
     8    3    8 ar
     9    3    4 ar
    10    4    5 ar
    11    4   24 1
    12    5    6 ar
    13    5   25 1
    14    6    7 ar
    15    6    9 1
    16    7    8 ar
    17    7   26 1
    18    8   27 1
    19    9   14 am
    20    9   10 1
    21   10   11 1
    22   10   28 1
    23   10   29 1
    24   11   12 1
    25   11   13 1
    26   11   16 1
    27   13   14 1
    28   13   30 1
    29   13   31 1
    30   14   15 2
    31   16   17 2
    32   16   18 1
##########                 Name:                  113
##########          Protonation:                 none
##########               SMILES:   c1cc(ccc1C(=O)O)NS(=O)(=O)c2ccsc2C(=O)O
##########            Long Name:   3-[(4-carboxyphenyl)sulfamoyl]thiophene-2-carboxylic
##########          FlexRecCode: 1
##########               Number:                  105
##########   Ligand Source File: ./ligands-ampc-0000001.db2.gz
##########           GlobalRank: 4
##########                 Rank:                    1
##########               Setnum:                   14
##########             Matchnum:                 1677
##########                Cloud:                    1
##########        Electrostatic:           -64.166092
##########                 Gist:             5.338285
##########        Van der Waals:           -22.340872
##########  Ligand Polar Desolv:            36.692421
########## Ligand Apolar Desolv:            -1.224285
##########      Internal Energy:             0.000000
##########      Receptor Energy: 0.0
########## Receptor Desolvation:             0.000000
########## Receptor Hydrophobic:             0.000000
##########         Total Energy: -45.7
##########        Ligand Charge:            -2.000000
##########            Arbitrary:    +999.9990
##########     heavy atom count:   21
##########           pose count:    1
##########        Ligand Energy:             0.000000

@<TRIPOS>MOLECULE
              113      none
   28    29     0     0     0



@<TRIPOS>ATOM
      1 C1         46.7249    41.5053    40.6963 C.ar       1  LIG1  -0.0712
      2 C2         45.6842    40.9245    40.0290 C.ar       1  LIG1  -0.1440
      3 C3         44.8654    41.6947    39.2066 C.ar       1  LIG1   0.1419
      4 C4         45.1044    43.0591    39.0610 C.ar       1  LIG1  -0.1709
      5 C5         46.1433    43.6469    39.7247 C.ar       1  LIG1  -0.0679
      6 C6         46.9678    42.8766    40.5527 C.ar       1  LIG1  -0.1506
      7 C7         48.0876    43.5066    41.2697 C.2        1  LIG1   0.5239
      8 O1         48.8078    42.8310    41.9931 O.co2      1  LIG1  -0.6939
      9 O2         48.2985    44.7046    41.1438 O.co2      1  LIG1  -0.6948
     10 N1         43.8079    41.1002    38.5297 N.pl3      1  LIG1  -1.0368
     11 S1         42.4473    41.9788    38.1846 S.o2       1  LIG1   2.7211
     12 O3         41.3886    41.0437    38.0296 O.2        1  LIG1  -0.9803
     13 O4         42.3962    43.0371    39.1315 O.2        1  LIG1  -0.9332
     14 C8         42.6949    42.7251    36.6079 C.2        1  LIG1  -0.6972
     15 C9         42.7858    44.0853    36.4500 C.2        1  LIG1  -0.0930
     16 C10        42.9771    44.5943    35.2063 C.2        1  LIG1  -0.2944
     17 S2         43.0396    43.2417    34.2120 S.3        1  LIG1   0.2129
     18 C11        42.8167    41.9737    35.4452 C.2        1  LIG1  -0.0671
     19 C12        42.7728    40.5662    35.2820 C.2        1  LIG1   0.5353
     20 O5         42.6073    39.8416    36.2558 O.co2      1  LIG1  -0.6360
     21 O6         42.9003    40.0745    34.1672 O.co2      1  LIG1  -0.6687
     22 H1         47.3568    40.9085    41.3372 H          1  LIG1   0.1265
     23 H2         45.4964    39.8667    40.1390 H          1  LIG1   0.1218
     24 H3         44.4675    43.6529    38.4222 H          1  LIG1   0.1452
     25 H4         46.3284    44.7047    39.6106 H          1  LIG1   0.1273
     26 H5         43.8666    40.1707    38.2591 H          1  LIG1   0.4268
     27 H6         42.7058    44.7418    37.3037 H          1  LIG1   0.1376
     28 H7         43.0680    45.6320    34.9210 H          1  LIG1   0.1796
@<TRIPOS>BOND
     1    1    6 ar
     2    1    2 ar
     3    1   22 1
     4    2    3 ar
     5    2   23 1
     6    3    4 ar
     7    3   10 1
     8    4    5 ar
     9    4   24 1
    10    5    6 ar
    11    5   25 1
    12    6    7 1
    13    7    8 2
    14    7    9 1
    15   10   11 1
    16   10   26 1
    17   11   12 2
    18   11   13 2
    19   11   14 1
    20   14   18 2
    21   14   15 1
    22   15   16 2
    23   15   27 1
    24   16   17 1
    25   16   28 1
    26   17   18 1
    27   18   19 1
    28   19   20 2
    29   19   21 1
##########                 Name:                  301
##########          Protonation:                 none
##########               SMILES:   C[C@H](C(=O)O)N1C(=O)[C@H]2[C@@H]3CC[C@@H](C3)[C@@H]2C1=O
##########            Long Name:   (2R)-2-(dioxoBLAHyl)propanoic
##########          FlexRecCode: 1
##########               Number:                   50
##########   Ligand Source File: ./ligands-ampc-0000001.db2.gz
##########           GlobalRank: 5
##########                 Rank:                    1
##########               Setnum:                    1
##########             Matchnum:                 1358
##########                Cloud:                    1
##########        Electrostatic:           -54.241112
##########                 Gist:             4.659906
##########        Van der Waals:           -18.516769
##########  Ligand Polar Desolv:            24.979996
########## Ligand Apolar Desolv:            -2.215292
##########      Internal Energy:             0.000000
##########      Receptor Energy: 0.0
########## Receptor Desolvation:             0.000000
########## Receptor Hydrophobic:             0.000000
##########         Total Energy: -45.33
##########        Ligand Charge:            -1.000000
##########            Arbitrary:    +999.9990
##########     heavy atom count:   17
##########           pose count:    1
##########        Ligand Energy:             0.000000

@<TRIPOS>MOLECULE
              301      none
   31    33     0     0     0



@<TRIPOS>ATOM
      1 C1         42.6330    44.3151    35.8708 C.3        1  LIG1  -0.1410
      2 C2         43.5172    43.0671    35.8240 C.3        1  LIG1   0.0581
      3 H1         44.3628    43.2457    35.1599 H          1  LIG1   0.0901
      4 C3         42.7129    41.9006    35.3108 C.2        1  LIG1   0.4870
      5 O1         42.9782    40.7687    35.6779 O.co2      1  LIG1  -0.6950
      6 O2         41.7968    42.0888    34.5284 O.co2      1  LIG1  -0.6597
      7 N1         44.0088    42.7663    37.1709 N.am       1  LIG1  -0.5841
      8 C4         45.3402    42.7251    37.5059 C.2        1  LIG1   0.5327
      9 O3         46.2757    43.1710    36.8768 O.2        1  LIG1  -0.4154
     10 C5         45.3808    42.0074    38.8221 C.3        1  LIG1  -0.1304
     11 H2         45.2967    40.9269    38.7053 H          1  LIG1   0.1217
     12 C6         46.3868    42.3960    39.9243 C.3        1  LIG1  -0.0811
     13 H3         47.3892    42.6773    39.6017 H          1  LIG1   0.1159
     14 C7         46.2404    41.1219    40.8447 C.3        1  LIG1  -0.1225
     15 C8         44.7560    41.1981    41.2882 C.3        1  LIG1  -0.1189
     16 C9         44.2301    42.5896    40.8434 C.3        1  LIG1  -0.0481
     17 H4         43.4164    42.9946    41.4451 H          1  LIG1   0.1080
     18 C10        45.6193    43.4113    40.8517 C.3        1  LIG1  -0.1305
     19 C11        44.0585    42.6788    39.3742 C.3        1  LIG1  -0.1779
     20 H5         44.3072    43.7307    39.2332 H          1  LIG1   0.0960
     21 C12        43.1836    42.4978    38.2483 C.2        1  LIG1   0.5744
     22 O4         42.0125    42.1846    38.2447 O.2        1  LIG1  -0.4879
     23 H6         41.7874    44.1365    36.5348 H          1  LIG1   0.0456
     24 H7         43.2148    45.1587    36.2418 H          1  LIG1   0.0699
     25 H8         42.2671    44.5387    34.8686 H          1  LIG1   0.0595
     26 H9         46.4286    40.2106    40.2772 H          1  LIG1   0.0683
     27 H10        46.9056    41.1877    41.7056 H          1  LIG1   0.0690
     28 H11        44.1807    40.4092    40.8035 H          1  LIG1   0.0672
     29 H12        44.6847    41.1008    42.3715 H          1  LIG1   0.0702
     30 H13        46.0486    43.4571    41.8525 H          1  LIG1   0.0821
     31 H14        45.5400    44.3999    40.3995 H          1  LIG1   0.0768
@<TRIPOS>BOND
     1    1    2 1
     2    1   23 1
     3    1   24 1
     4    1   25 1
     5    2    3 1
     6    2    4 1
     7    2    7 1
     8    4    5 2
     9    4    6 1
    10    7   21 am
    11    7    8 am
    12    8    9 2
    13    8   10 1
    14   10   11 1
    15   10   19 1
    16   10   12 1
    17   12   13 1
    18   12   18 1
    19   12   14 1
    20   14   15 1
    21   14   26 1
    22   14   27 1
    23   15   16 1
    24   15   28 1
    25   15   29 1
    26   16   17 1
    27   16   18 1
    28   16   19 1
    29   18   30 1
    30   18   31 1
    31   19   20 1
    32   19   21 1
    33   21   22 2
##########                 Name:                  101
##########          Protonation:                 none
##########               SMILES:   c1ccc2c(c1)nc(s2)SCCC(=O)O
##########            Long Name:   3-(1,3-benzothiazol-2-ylsulfanyl)propanoic
##########          FlexRecCode: 1
##########               Number:                   82
##########   Ligand Source File: ./ligands-ampc-0000001.db2.gz
##########           GlobalRank: 6
##########                 Rank:                    1
##########               Setnum:                   79
##########             Matchnum:                 4552
##########                Cloud:                    1
##########        Electrostatic:           -54.567726
##########                 Gist:             2.739572
##########        Van der Waals:           -16.183851
##########  Ligand Polar Desolv:            24.901613
########## Ligand Apolar Desolv:            -2.188866
##########      Internal Energy:             0.000000
##########      Receptor Energy: 0.0
########## Receptor Desolvation:             0.000000
########## Receptor Hydrophobic:             0.000000
##########         Total Energy: -45.3
##########        Ligand Charge:            -1.000000
##########            Arbitrary:    +999.9990
##########     heavy atom count:   15
##########           pose count:    1
##########        Ligand Energy:             0.000000

@<TRIPOS>MOLECULE
              101      none
   23    24     0     0     0



@<TRIPOS>ATOM
      1 C1         47.6626    42.3880    38.9832 C.ar       1  LIG1  -0.1111
      2 C2         47.4232    43.6306    39.5514 C.ar       1  LIG1  -0.1068
      3 C3         46.4849    44.4686    38.9764 C.ar       1  LIG1  -0.0622
      4 C4         45.8069    44.0592    37.8560 C.ar       1  LIG1  -0.1500
      5 C5         46.0243    42.8010    37.2500 C.ar       1  LIG1   0.0932
      6 C6         46.9901    41.9707    37.8641 C.ar       1  LIG1  -0.0691
      7 N1         45.2796    42.5430    36.1527 N.2        1  LIG1  -0.5021
      8 C7         44.4076    43.4022    35.6742 C.2        1  LIG1   0.1459
      9 S1         44.5585    44.7721    36.8120 S.3        1  LIG1   0.0010
     10 S2         43.3573    43.2438    34.2682 S.3        1  LIG1   0.0197
     11 C8         44.2889    42.1677    33.1436 C.3        1  LIG1  -0.0834
     12 C9         43.3132    41.3549    32.2904 C.3        1  LIG1  -0.1694
     13 C10        42.4437    40.5118    33.1870 C.2        1  LIG1   0.5022
     14 O1         41.2334    40.6578    33.1751 O.co2      1  LIG1  -0.6908
     15 O2         42.9506    39.6837    33.9243 O.co2      1  LIG1  -0.6908
     16 H1         48.3987    41.7363    39.4302 H          1  LIG1   0.1317
     17 H2         47.9636    43.9405    40.4336 H          1  LIG1   0.1361
     18 H3         46.2868    45.4391    39.4071 H          1  LIG1   0.1322
     19 H4         47.2006    40.9971    37.4466 H          1  LIG1   0.1313
     20 H5         44.9180    42.7775    32.4951 H          1  LIG1   0.0973
     21 H6         44.9150    41.4903    33.7244 H          1  LIG1   0.0973
     22 H7         42.6872    42.0323    31.7094 H          1  LIG1   0.0738
     23 H8         43.8731    40.7082    31.6146 H          1  LIG1   0.0738
@<TRIPOS>BOND
     1    1    6 ar
     2    1    2 ar
     3    1   16 1
     4    2    3 ar
     5    2   17 1
     6    3    4 ar
     7    3   18 1
     8    4    9 1
     9    4    5 ar
    10    5    6 ar
    11    5    7 1
    12    6   19 1
    13    7    8 2
    14    8    9 1
    15    8   10 1
    16   10   11 1
    17   11   12 1
    18   11   20 1
    19   11   21 1
    20   12   13 1
    21   12   22 1
    22   12   23 1
    23   13   14 2
    24   13   15 1
##########                 Name:                  106
##########          Protonation:                 none
##########               SMILES:   c1cc(ccc1NS(=O)(=O)c2ccsc2C(=O)O)Cl
##########            Long Name:   3-[(4-chlorophenyl)sulfamoyl]thiophene-2-carboxylic
##########          FlexRecCode: 1
##########               Number:                   21
##########   Ligand Source File: ./ligands-ampc-0000001.db2.gz
##########           GlobalRank: 7
##########                 Rank:                    1
##########               Setnum:                   20
##########             Matchnum:                 6830
##########                Cloud:                    1
##########        Electrostatic:           -88.781761
##########                 Gist:             2.641018
##########        Van der Waals:           -20.893343
##########  Ligand Polar Desolv:            63.896027
########## Ligand Apolar Desolv:            -1.841901
##########      Internal Energy:             0.000000
##########      Receptor Energy: 0.0
########## Receptor Desolvation:             0.000000
########## Receptor Hydrophobic:             0.000000
##########         Total Energy: -44.98
##########        Ligand Charge:            -2.000000
##########            Arbitrary:    +999.9990
##########     heavy atom count:   19
##########           pose count:    1
##########        Ligand Energy:             0.000000

@<TRIPOS>MOLECULE
              106      none
   25    26     0     0     0



@<TRIPOS>ATOM
      1 C1         43.1868    39.8767    39.2680 C.ar       1  LIG1  -0.1793
      2 C2         44.1057    39.6114    40.2642 C.ar       1  LIG1  -0.0661
      3 C3         45.2235    40.4144    40.4081 C.ar       1  LIG1  -0.1577
      4 C4         45.4238    41.4852    39.5548 C.ar       1  LIG1  -0.0501
      5 C5         44.5083    41.7550    38.5565 C.ar       1  LIG1  -0.2634
      6 C6         43.3855    40.9506    38.4098 C.ar       1  LIG1   0.3015
      7 N1         42.4576    41.2212    37.4006 N.2        1  LIG1  -1.0547
      8 S1         42.2269    42.7774    36.8834 S.o2       1  LIG1   2.6406
      9 O1         40.9223    42.8296    36.3223 O.2        1  LIG1  -1.0580
     10 O2         42.6318    43.6241    37.9503 O.2        1  LIG1  -0.9945
     11 C7         43.3558    43.0593    35.5603 C.2        1  LIG1  -0.6599
     12 C8         44.4362    43.8957    35.6881 C.2        1  LIG1  -0.0926
     13 C9         45.2667    44.0682    34.6284 C.2        1  LIG1  -0.3106
     14 S2         44.6065    43.0998    33.4248 S.3        1  LIG1   0.1571
     15 C10        43.2123    42.4447    34.3223 C.2        1  LIG1  -0.0459
     16 C11        42.2161    41.5353    33.8860 C.2        1  LIG1   0.5271
     17 O3         41.1906    41.9548    33.3632 O.co2      1  LIG1  -0.5949
     18 O4         42.3806    40.3303    34.0317 O.co2      1  LIG1  -0.6943
     19 Cl1        46.3763    40.0782    41.6618 Cl         1  LIG1  -0.1362
     20 H1         42.3167    39.2472    39.1536 H          1  LIG1   0.1171
     21 H2         43.9517    38.7765    40.9319 H          1  LIG1   0.1073
     22 H3         46.2967    42.1107    39.6697 H          1  LIG1   0.1044
     23 H4         44.6650    42.5909    37.8910 H          1  LIG1   0.1014
     24 H5         44.6230    44.4100    36.6191 H          1  LIG1   0.1299
     25 H6         46.1502    44.6869    34.5717 H          1  LIG1   0.1718
@<TRIPOS>BOND
     1    1    6 ar
     2    1    2 ar
     3    1   20 1
     4    2    3 ar
     5    2   21 1
     6    3    4 ar
     7    3   19 1
     8    4    5 ar
     9    4   22 1
    10    5    6 ar
    11    5   23 1
    12    6    7 1
    13    7    8 1
    14    8    9 2
    15    8   10 2
    16    8   11 1
    17   11   15 2
    18   11   12 1
    19   12   13 2
    20   12   24 1
    21   13   14 1
    22   13   25 1
    23   14   15 1
    24   15   16 1
    25   16   17 2
    26   16   18 1
##########                 Name:                  116
##########          Protonation:                 none
##########               SMILES:   c1cc(c(cc1C(=O)O)O)NS(=O)(=O)c2ccsc2C(=O)O
##########            Long Name:   3-[(4-carboxy-2-hydroxy-phenyl)sulfamoyl]thiophene-2-carboxylic
##########          FlexRecCode: 1
##########               Number:                    2
##########   Ligand Source File: ./ligands-ampc-0000001.db2.gz
##########           GlobalRank: 8
##########                 Rank:                    1
##########               Setnum:                    2
##########             Matchnum:                 1677
##########                Cloud:                    1
##########        Electrostatic:           -66.061630
##########                 Gist:             5.722867
##########        Van der Waals:           -22.403530
##########  Ligand Polar Desolv:            38.438198
########## Ligand Apolar Desolv:            -0.619140
##########      Internal Energy:             0.000000
##########      Receptor Energy: 0.0
########## Receptor Desolvation:             0.000000
########## Receptor Hydrophobic:             0.000000
##########         Total Energy: -44.92
##########        Ligand Charge:            -2.000000
##########            Arbitrary:    +999.9990
##########     heavy atom count:   22
##########           pose count:    1
##########        Ligand Energy:             0.000000

@<TRIPOS>MOLECULE
              116      none
   29    30     0     0     0



@<TRIPOS>ATOM
      1 C1         45.9615    42.2404    41.2697 C.ar       1  LIG1  -0.0661
      2 C2         44.9142    41.6543    40.5954 C.ar       1  LIG1  -0.1827
      3 C3         44.8686    41.6938    39.2060 C.ar       1  LIG1   0.1354
      4 C4         45.8855    42.3289    38.4886 C.ar       1  LIG1   0.0673
      5 C5         46.9370    42.9185    39.1584 C.ar       1  LIG1  -0.0888
      6 C6         46.9825    42.8784    40.5575 C.ar       1  LIG1  -0.1442
      7 C7         48.1023    43.5059    41.2769 C.2        1  LIG1   0.5258
      8 O1         48.1408    43.4701    42.4993 O.co2      1  LIG1  -0.6928
      9 O2         48.9948    44.0635    40.6526 O.co2      1  LIG1  -0.6926
     10 O3         45.8387    42.3652    37.1298 O.3        1  LIG1  -0.4932
     11 N1         43.8083    41.0994    38.5289 N.pl3      1  LIG1  -1.0228
     12 S1         42.4481    41.9791    38.1850 S.o2       1  LIG1   2.7235
     13 O4         41.3883    41.0451    38.0309 O.2        1  LIG1  -0.9395
     14 O5         42.3990    43.0377    39.1317 O.2        1  LIG1  -0.9792
     15 C8         42.6951    42.7252    36.6079 C.2        1  LIG1  -0.6979
     16 C9         42.7869    44.0852    36.4499 C.2        1  LIG1  -0.0931
     17 C10        42.9775    44.5941    35.2060 C.2        1  LIG1  -0.2927
     18 S2         43.0381    43.2414    34.2117 S.3        1  LIG1   0.2149
     19 C11        42.8152    41.9736    35.4451 C.2        1  LIG1  -0.0695
     20 C12        42.7700    40.5662    35.2821 C.2        1  LIG1   0.5366
     21 O6         42.6049    39.8418    36.2560 O.co2      1  LIG1  -0.6364
     22 O7         42.8961    40.0743    34.1672 O.co2      1  LIG1  -0.6678
     23 H1         45.9924    42.2120    42.3490 H          1  LIG1   0.1307
     24 H2         44.1265    41.1621    41.1465 H          1  LIG1   0.1552
     25 H3         47.7240    43.4094    38.6052 H          1  LIG1   0.1326
     26 H4         46.5852    42.8258    36.7227 H          1  LIG1   0.3866
     27 H5         43.8658    40.1697    38.2583 H          1  LIG1   0.4320
     28 H6         42.7082    44.7419    37.3037 H          1  LIG1   0.1383
     29 H7         43.0690    45.6317    34.9207 H          1  LIG1   0.1803
@<TRIPOS>BOND
     1    1    6 ar
     2    1    2 ar
     3    1   23 1
     4    2    3 ar
     5    2   24 1
     6    3    4 ar
     7    3   11 1
     8    4    5 ar
     9    4   10 1
    10    5    6 ar
    11    5   25 1
    12    6    7 1
    13    7    8 2
    14    7    9 1
    15   10   26 1
    16   11   12 1
    17   11   27 1
    18   12   13 2
    19   12   14 2
    20   12   15 1
    21   15   19 2
    22   15   16 1
    23   16   17 2
    24   16   28 1
    25   17   18 1
    26   17   29 1
    27   18   19 1
    28   19   20 1
    29   20   21 2
    30   20   22 1
##########                 Name:                  308
##########          Protonation:                 none
##########               SMILES:   c1ccc(c(c1)N2C[C@H](CC2=O)C(=O)O)O
##########            Long Name:   (3S)-1-(2-hydroxyphenyl)-5-oxo-pyrrolidine-3-carboxylic
##########          FlexRecCode: 1
##########               Number:                   26
##########   Ligand Source File: ./ligands-ampc-0000001.db2.gz
##########           GlobalRank: 9
##########                 Rank:                    1
##########               Setnum:                    9
##########             Matchnum:                 1466
##########                Cloud:                    1
##########        Electrostatic:           -58.655735
##########                 Gist:             5.384330
##########        Van der Waals:           -15.108068
##########  Ligand Polar Desolv:            25.613310
########## Ligand Apolar Desolv:            -1.875208
##########      Internal Energy:             0.000000
##########      Receptor Energy: 0.0
########## Receptor Desolvation:             0.000000
########## Receptor Hydrophobic:             0.000000
##########         Total Energy: -44.64
##########        Ligand Charge:            -1.000000
##########            Arbitrary:    +999.9990
##########     heavy atom count:   16
##########           pose count:    1
##########        Ligand Energy:             0.000000

@<TRIPOS>MOLECULE
              308      none
   26    27     0     0     0



@<TRIPOS>ATOM
      1 C1         43.7164    42.0025    40.1531 C.ar       1  LIG1  -0.1220
      2 C2         44.3847    43.0922    40.6806 C.ar       1  LIG1  -0.1059
      3 C3         45.0202    43.9898    39.8428 C.ar       1  LIG1  -0.1420
      4 C4         44.9887    43.7990    38.4709 C.ar       1  LIG1   0.1115
      5 C5         44.3162    42.7013    37.9391 C.ar       1  LIG1   0.1300
      6 C6         43.6808    41.8049    38.7858 C.ar       1  LIG1  -0.0980
      7 N1         44.2807    42.5036    36.5522 N.am       1  LIG1  -0.5834
      8 C7         44.7990    41.3240    35.8593 C.3        1  LIG1   0.1307
      9 C8         44.0785    41.3044    34.5065 C.3        1  LIG1  -0.1648
     10 H1         44.6995    40.8512    33.7338 H          1  LIG1   0.0852
     11 C9         43.9085    42.8101    34.2721 C.3        1  LIG1  -0.1244
     12 C10        43.7603    43.3665    35.6637 C.2        1  LIG1   0.5257
     13 O1         43.2510    44.4322    35.9399 O.2        1  LIG1  -0.5391
     14 C11        42.7442    40.6112    34.6073 C.2        1  LIG1   0.5053
     15 O2         42.6051    39.6634    35.3616 O.co2      1  LIG1  -0.6873
     16 O3         41.8038    40.9981    33.9347 O.co2      1  LIG1  -0.6913
     17 O4         45.6125    44.6815    37.6456 O.3        1  LIG1  -0.4893
     18 H2         43.2249    41.3018    40.8118 H          1  LIG1   0.1286
     19 H3         44.4100    43.2427    41.7497 H          1  LIG1   0.1278
     20 H4         45.5409    44.8401    40.2580 H          1  LIG1   0.1309
     21 H5         43.1584    40.9528    38.3768 H          1  LIG1   0.1296
     22 H6         45.8754    41.4137    35.7132 H          1  LIG1   0.0687
     23 H7         44.5675    40.4211    36.4243 H          1  LIG1   0.0806
     24 H8         44.7893    43.2238    33.7809 H          1  LIG1   0.0975
     25 H9         43.0118    43.0082    33.6849 H          1  LIG1   0.1065
     26 H10        46.0509    45.4094    38.1073 H          1  LIG1   0.3888
@<TRIPOS>BOND
     1    1    6 ar
     2    1    2 ar
     3    1   18 1
     4    2    3 ar
     5    2   19 1
     6    3    4 ar
     7    3   20 1
     8    4    5 ar
     9    4   17 1
    10    5    6 ar
    11    5    7 1
    12    6   21 1
    13    7   12 am
    14    7    8 1
    15    8    9 1
    16    8   22 1
    17    8   23 1
    18    9   10 1
    19    9   11 1
    20    9   14 1
    21   11   12 1
    22   11   24 1
    23   11   25 1
    24   12   13 2
    25   14   15 2
    26   14   16 1
    27   17   26 1
##########                 Name:                  109
##########          Protonation:                 none
##########               SMILES:   c1ccc(c(c1)C(=O)O)S(=O)(=O)Nc2ccc(cc2)Cl
##########            Long Name:   2-[(4-chlorophenyl)sulfamoyl]benzoic
##########          FlexRecCode: 1
##########               Number:                   52
##########   Ligand Source File: ./ligands-ampc-0000001.db2.gz
##########           GlobalRank: 10
##########                 Rank:                    1
##########               Setnum:                   12
##########             Matchnum:                 7450
##########                Cloud:                    1
##########        Electrostatic:           -57.289753
##########                 Gist:             2.793100
##########        Van der Waals:           -13.169712
##########  Ligand Polar Desolv:            24.928793
########## Ligand Apolar Desolv:            -1.575959
##########      Internal Energy:             0.000000
##########      Receptor Energy: 0.0
########## Receptor Desolvation:             0.000000
########## Receptor Hydrophobic:             0.000000
##########         Total Energy: -44.31
##########        Ligand Charge:            -1.000000
##########            Arbitrary:    +999.9990
##########     heavy atom count:   20
##########           pose count:    1
##########        Ligand Energy:             0.000000

@<TRIPOS>MOLECULE
              109      none
   29    30     0     0     0



@<TRIPOS>ATOM
      1 C1         45.2365    44.3962    33.4499 C.ar       1  LIG1  -0.0832
      2 C2         45.5440    44.8292    34.7276 C.ar       1  LIG1  -0.1501
      3 C3         45.0119    44.1853    35.8307 C.ar       1  LIG1  -0.0406
      4 C4         44.1710    43.1047    35.6635 C.ar       1  LIG1  -0.6513
      5 C5         43.8565    42.6612    34.3766 C.ar       1  LIG1  -0.0351
      6 C6         44.3974    43.3168    33.2673 C.ar       1  LIG1  -0.1100
      7 C7         42.9579    41.5061    34.1895 C.2        1  LIG1   0.5130
      8 O1         41.7515    41.6797    34.0910 O.co2      1  LIG1  -0.6631
      9 O2         43.4196    40.3751    34.1329 O.co2      1  LIG1  -0.6577
     10 S1         43.4954    42.2856    37.0696 S.o2       1  LIG1   2.7174
     11 O3         43.5063    43.2282    38.1329 O.2        1  LIG1  -0.9270
     12 O4         42.3053    41.6437    36.6328 O.2        1  LIG1  -0.9905
     13 N1         44.5537    41.0839    37.4916 N.pl3      1  LIG1  -1.0280
     14 C8         45.5838    41.3468    38.3986 C.ar       1  LIG1   0.1738
     15 C9         46.8152    41.7981    37.9412 C.ar       1  LIG1  -0.1522
     16 C10        47.8313    42.0577    38.8398 C.ar       1  LIG1  -0.0879
     17 C11        47.6237    41.8679    40.1948 C.ar       1  LIG1  -0.0576
     18 C12        46.3979    41.4183    40.6533 C.ar       1  LIG1  -0.0925
     19 C13        45.3764    41.1627    39.7595 C.ar       1  LIG1  -0.1196
     20 Cl1        48.9036    42.1940    41.3214 Cl         1  LIG1  -0.0836
     21 H1         45.6523    44.9055    32.5932 H          1  LIG1   0.1229
     22 H2         46.2024    45.6743    34.8645 H          1  LIG1   0.1234
     23 H3         45.2558    44.5295    36.8249 H          1  LIG1   0.1355
     24 H4         44.1584    42.9794    32.2696 H          1  LIG1   0.1349
     25 H5         44.4586    40.1975    37.1093 H          1  LIG1   0.4374
     26 H6         46.9780    41.9458    36.8838 H          1  LIG1   0.1627
     27 H7         48.7890    42.4087    38.4848 H          1  LIG1   0.1350
     28 H8         46.2386    41.2710    41.7113 H          1  LIG1   0.1333
     29 H9         44.4185    40.8160    40.1183 H          1  LIG1   0.1407
@<TRIPOS>BOND
     1    1    6 ar
     2    1    2 ar
     3    1   21 1
     4    2    3 ar
     5    2   22 1
     6    3    4 ar
     7    3   23 1
     8    4    5 ar
     9    4   10 1
    10    5    6 ar
    11    5    7 1
    12    6   24 1
    13    7    8 2
    14    7    9 1
    15   10   11 2
    16   10   12 2
    17   10   13 1
    18   13   14 1
    19   13   25 1
    20   14   19 ar
    21   14   15 ar
    22   15   16 ar
    23   15   26 1
    24   16   17 ar
    25   16   27 1
    26   17   18 ar
    27   17   20 1
    28   18   19 ar
    29   18   28 1
    30   19   29 1
##########                 Name:                  105
##########          Protonation:                 none
##########               SMILES:   Cc1c(c(c(o1)C)S(=O)(=O)Nc2cccs2)C(=O)O
##########            Long Name:   2,5-dimethyl-4-(2-thienylsulfamoyl)furan-3-carboxylic
##########          FlexRecCode: 1
##########               Number:                   81
##########   Ligand Source File: ./ligands-ampc-0000001.db2.gz
##########           GlobalRank: 11
##########                 Rank:                    1
##########               Setnum:                   16
##########             Matchnum:                 2345
##########                Cloud:                    1
##########        Electrostatic:           -49.310913
##########                 Gist:             3.125314
##########        Van der Waals:           -21.047543
##########  Ligand Polar Desolv:            25.160774
########## Ligand Apolar Desolv:            -1.567363
##########      Internal Energy:             0.000000
##########      Receptor Energy: 0.0
########## Receptor Desolvation:             0.000000
########## Receptor Hydrophobic:             0.000000
##########         Total Energy: -43.64
##########        Ligand Charge:            -1.000000
##########            Arbitrary:    +999.9990
##########     heavy atom count:   19
##########           pose count:    1
##########        Ligand Energy:             0.000000

@<TRIPOS>MOLECULE
              105      none
   29    30     0     0     0



@<TRIPOS>ATOM
      1 C1         43.9194    40.4920    32.2683 C.3        1  LIG1  -0.0457
      2 C2         44.2725    41.7339    33.0456 C.2        1  LIG1  -0.0119
      3 C3         43.4610    42.3766    33.9378 C.2        1  LIG1  -0.1324
      4 C4         44.2436    43.5216    34.4291 C.2        1  LIG1  -0.7425
      5 C5         45.4251    43.4581    33.7980 C.2        1  LIG1   0.1011
      6 O1         45.4336    42.3906    32.9841 O.3        1  LIG1  -0.1769
      7 C6         46.5646    44.4278    33.9780 C.3        1  LIG1  -0.0877
      8 S1         43.7328    44.7294    35.6059 S.o2       1  LIG1   2.6894
      9 O2         44.9068    45.1620    36.2797 O.2        1  LIG1  -0.8679
     10 O3         42.8740    45.6288    34.9182 O.2        1  LIG1  -0.9727
     11 N1         42.8000    43.9522    36.7320 N.pl3      1  LIG1  -1.0149
     12 C7         43.3395    42.9066    37.4837 C.2        1  LIG1   0.0798
     13 C8         42.7139    41.8177    38.0119 C.2        1  LIG1  -0.1841
     14 C9         43.4635    40.9016    38.7289 C.2        1  LIG1  -0.1499
     15 C10        44.7915    41.1146    38.8832 C.2        1  LIG1  -0.1981
     16 S2         45.0296    42.6451    37.9956 S.3        1  LIG1   0.1359
     17 C11        42.0935    42.0029    34.3249 C.2        1  LIG1   0.5301
     18 O4         41.5653    41.0166    33.8294 O.co2      1  LIG1  -0.6906
     19 O5         41.4831    42.6779    35.1429 O.co2      1  LIG1  -0.6246
     20 H1         42.9060    40.1807    32.5219 H          1  LIG1   0.0568
     21 H2         43.9782    40.7027    31.2005 H          1  LIG1   0.0886
     22 H3         44.6183    39.6946    32.5204 H          1  LIG1   0.0884
     23 H4         47.3979    44.1317    33.3408 H          1  LIG1   0.0984
     24 H5         46.2356    45.4300    33.7036 H          1  LIG1   0.0832
     25 H6         46.8846    44.4230    35.0201 H          1  LIG1   0.0904
     26 H7         41.8788    44.2233    36.8694 H          1  LIG1   0.4192
     27 H8         41.6527    41.6722    37.8740 H          1  LIG1   0.1290
     28 H9         42.9953    40.0289    39.1598 H          1  LIG1   0.1285
     29 H10        45.5200    40.5119    39.4052 H          1  LIG1   0.1810
@<TRIPOS>BOND
     1    1    2 1
     2    1   20 1
     3    1   21 1
     4    1   22 1
     5    2    6 1
     6    2    3 2
     7    3    4 1
     8    3   17 1
     9    4    5 2
    10    4    8 1
    11    5    6 1
    12    5    7 1
    13    7   23 1
    14    7   24 1
    15    7   25 1
    16    8    9 2
    17    8   10 2
    18    8   11 1
    19   11   12 1
    20   11   26 1
    21   12   16 1
    22   12   13 2
    23   13   14 1
    24   13   27 1
    25   14   15 2
    26   14   28 1
    27   15   16 1
    28   15   29 1
    29   17   18 2
    30   17   19 1
##########                 Name:                  102
##########          Protonation:                 none
##########               SMILES:   c1ccc2c(c1)nc(s2)SCCCS(=O)(=O)O
##########            Long Name:   3-(1,3-benzothiazol-2-ylsulfanyl)propane-1-sulfonic
##########          FlexRecCode: 1
##########               Number:                   31
##########   Ligand Source File: ./ligands-ampc-0000001.db2.gz
##########           GlobalRank: 12
##########                 Rank:                    1
##########               Setnum:                   94
##########             Matchnum:                 1107
##########                Cloud:                    1
##########        Electrostatic:           -48.941956
##########                 Gist:             3.019845
##########        Van der Waals:           -24.219351
##########  Ligand Polar Desolv:            27.029160
########## Ligand Apolar Desolv:            -0.287030
##########      Internal Energy:             0.000000
##########      Receptor Energy: 0.0
########## Receptor Desolvation:             0.000000
########## Receptor Hydrophobic:             0.000000
##########         Total Energy: -43.4
##########        Ligand Charge:            -1.000000
##########            Arbitrary:    +999.9990
##########     heavy atom count:   17
##########           pose count:    1
##########        Ligand Energy:             0.000000

@<TRIPOS>MOLECULE
              102      none
   27    28     0     0     0



@<TRIPOS>ATOM
      1 C1         47.3797    41.7971    40.1584 C.ar       1  LIG1  -0.1099
      2 C2         46.4635    41.2427    41.0401 C.ar       1  LIG1  -0.1016
      3 C3         45.1107    41.3825    40.7875 C.ar       1  LIG1  -0.0643
      4 C4         44.6968    42.0655    39.6718 C.ar       1  LIG1  -0.1427
      5 C5         45.6010    42.6433    38.7519 C.ar       1  LIG1   0.0911
      6 C6         46.9754    42.4810    39.0415 C.ar       1  LIG1  -0.0651
      7 N1         45.0399    43.2835    37.7028 N.2        1  LIG1  -0.4930
      8 C7         43.7380    43.3674    37.5420 C.2        1  LIG1   0.1381
      9 S1         43.1203    42.4819    38.9662 S.3        1  LIG1  -0.0152
     10 S2         42.8324    44.1533    36.2509 S.3        1  LIG1   0.0554
     11 C8         43.9232    44.0227    34.8073 C.3        1  LIG1  -0.1188
     12 C9         43.6238    42.7230    34.0578 C.3        1  LIG1  -0.0822
     13 C10        42.1651    42.7248    33.5962 C.3        1  LIG1  -0.6712
     14 S3         41.8101    41.1838    32.7075 S.o2       1  LIG1   2.6399
     15 O1         42.0431    40.0643    33.6065 O.2        1  LIG1  -1.0648
     16 O2         40.4207    41.2047    32.2773 O.2        1  LIG1  -1.0610
     17 O3         42.6937    41.0978    31.5551 O.3        1  LIG1  -1.0610
     18 H1         48.4357    41.6913    40.3589 H          1  LIG1   0.1341
     19 H2         46.8027    40.7071    41.9145 H          1  LIG1   0.1381
     20 H3         44.3848    40.9562    41.4642 H          1  LIG1   0.1329
     21 H4         47.7148    42.9008    38.3756 H          1  LIG1   0.1337
     22 H5         43.7529    44.8716    34.1453 H          1  LIG1   0.0977
     23 H6         44.9625    44.0213    35.1363 H          1  LIG1   0.0977
     24 H7         44.2794    42.6445    33.1904 H          1  LIG1   0.0894
     25 H8         43.7943    41.8741    34.7200 H          1  LIG1   0.0894
     26 H9         41.5097    42.8034    34.4636 H          1  LIG1   0.1066
     27 H10        41.9948    43.5737    32.9339 H          1  LIG1   0.1066
@<TRIPOS>BOND
     1    1    6 ar
     2    1    2 ar
     3    1   18 1
     4    2    3 ar
     5    2   19 1
     6    3    4 ar
     7    3   20 1
     8    4    9 1
     9    4    5 ar
    10    5    6 ar
    11    5    7 1
    12    6   21 1
    13    7    8 2
    14    8    9 1
    15    8   10 1
    16   10   11 1
    17   11   12 1
    18   11   22 1
    19   11   23 1
    20   12   13 1
    21   12   24 1
    22   12   25 1
    23   13   14 1
    24   13   26 1
    25   13   27 1
    26   14   15 2
    27   14   16 2
    28   14   17 1
##########                 Name:                  210
##########          Protonation:                 none
##########               SMILES:   c1ccc2c(c1)c(c[nH]2)C[C@H](C(=O)O)N3C(=O)c4ccc(cc4C3=O)C(=O)O
##########            Long Name:   roxy-1-(1H-indol-3-ylmethyl)-2-oxo-ethyl]-1,3-dioxo-isoindoline-5-carboxylic
##########          FlexRecCode: 1
##########               Number:                    8
##########   Ligand Source File: ./ligands-ampc-0000001.db2.gz
##########           GlobalRank: 13
##########                 Rank:                    1
##########               Setnum:                    1
##########             Matchnum:                 6563
##########                Cloud:                    1
##########        Electrostatic:           -54.849499
##########                 Gist:             2.754253
##########        Van der Waals:           -22.350819
##########  Ligand Polar Desolv:            34.762634
########## Ligand Apolar Desolv:            -3.191923
##########      Internal Energy:             0.000000
##########      Receptor Energy: 0.0
########## Receptor Desolvation:             0.000000
########## Receptor Hydrophobic:             0.000000
##########         Total Energy: -42.88
##########        Ligand Charge:            -2.000000
##########            Arbitrary:    +999.9990
##########     heavy atom count:   28
##########           pose count:    1
##########        Ligand Energy:             0.000000

@<TRIPOS>MOLECULE
              210      none
   40    43     0     0     0



@<TRIPOS>ATOM
      1 C1         48.7722    41.2968    41.2782 C.ar       1  LIG1  -0.1565
      2 C2         47.7245    40.5723    41.8306 C.ar       1  LIG1  -0.1047
      3 C3         46.4187    40.8650    41.5039 C.ar       1  LIG1  -0.1361
      4 C4         46.1442    41.8969    40.6121 C.ar       1  LIG1   0.0976
      5 C5         47.2092    42.6283    40.0555 C.ar       1  LIG1  -0.0961
      6 C6         48.5253    42.3142    40.4003 C.ar       1  LIG1  -0.0597
      7 C7         46.5981    43.6252    39.1732 C.2        1  LIG1  -0.1500
      8 C8         45.2692    43.4489    39.2429 C.2        1  LIG1   0.0455
      9 N1         44.9793    42.4206    40.0978 N.pl3      1  LIG1  -0.5951
     10 H1         44.0862    42.1075    40.3102 H          1  LIG1   0.4122
     11 C9         47.3237    44.6539    38.3448 C.3        1  LIG1  -0.0441
     12 C10        47.6358    44.0699    36.9654 C.3        1  LIG1   0.0802
     13 H2         48.2635    43.1860    37.0786 H          1  LIG1   0.0961
     14 C11        48.3616    45.0985    36.1369 C.2        1  LIG1   0.4957
     15 O1         48.2354    45.1041    34.9242 O.co2      1  LIG1  -0.6937
     16 O2         49.0752    45.9250    36.6794 O.co2      1  LIG1  -0.6672
     17 N2         46.3856    43.6990    36.2978 N.am       1  LIG1  -0.5413
     18 C12        45.3936    44.5598    36.0077 C.2        1  LIG1   0.5828
     19 O3         45.3920    45.7488    36.2537 O.2        1  LIG1  -0.4546
     20 C13        44.3034    43.8137    35.3380 C.ar       1  LIG1  -0.1411
     21 C14        43.0650    44.1679    34.8270 C.ar       1  LIG1  -0.0686
     22 C15        42.2569    43.2055    34.2460 C.ar       1  LIG1  -0.0700
     23 C16        42.6837    41.8784    34.1729 C.ar       1  LIG1  -0.1226
     24 C17        43.9322    41.5133    34.6866 C.ar       1  LIG1  -0.0131
     25 C18        44.7409    42.4753    35.2671 C.ar       1  LIG1  -0.1592
     26 C19        46.0817    42.4541    35.8895 C.2        1  LIG1   0.5748
     27 O4         46.7895    41.4751    36.0140 O.2        1  LIG1  -0.4875
     28 C20        41.8145    40.8574    33.5522 C.2        1  LIG1   0.5251
     29 O5         40.7225    41.1753    33.1032 O.co2      1  LIG1  -0.6849
     30 O6         42.1872    39.6948    33.4873 O.co2      1  LIG1  -0.6810
     31 H3         49.7900    41.0572    41.5482 H          1  LIG1   0.1174
     32 H4         47.9356    39.7708    42.5231 H          1  LIG1   0.1179
     33 H5         45.6108    40.2950    41.9384 H          1  LIG1   0.1137
     34 H6         49.3452    42.8737    39.9749 H          1  LIG1   0.1248
     35 H7         44.5373    44.0321    38.7038 H          1  LIG1   0.1633
     36 H8         46.6961    45.5378    38.2316 H          1  LIG1   0.0805
     37 H9         48.2540    44.9300    38.8413 H          1  LIG1   0.0889
     38 H10        42.7306    45.1932    34.8820 H          1  LIG1   0.1314
     39 H11        41.2919    43.4825    33.8480 H          1  LIG1   0.1401
     40 H12        44.2634    40.4868    34.6309 H          1  LIG1   0.1392
@<TRIPOS>BOND
     1    1    6 ar
     2    1    2 ar
     3    1   31 1
     4    2    3 ar
     5    2   32 1
     6    3    4 ar
     7    3   33 1
     8    4    9 1
     9    4    5 ar
    10    5    6 ar
    11    5    7 1
    12    6   34 1
    13    7    8 2
    14    7   11 1
    15    8    9 1
    16    8   35 1
    17    9   10 1
    18   11   12 1
    19   11   36 1
    20   11   37 1
    21   12   13 1
    22   12   14 1
    23   12   17 1
    24   14   15 2
    25   14   16 1
    26   17   26 am
    27   17   18 am
    28   18   19 2
    29   18   20 1
    30   20   25 ar
    31   20   21 ar
    32   21   22 ar
    33   21   38 1
    34   22   23 ar
    35   22   39 1
    36   23   24 ar
    37   23   28 1
    38   24   25 ar
    39   24   40 1
    40   25   26 1
    41   26   27 2
    42   28   29 2
    43   28   30 1
##########                 Name:                  307
##########          Protonation:                 none
##########               SMILES:   c1ccc(cc1)[C@H]2C(=O)N(C(=O)O2)CC(=O)O
##########            Long Name:   2-[(5S)-2,4-dioxo-5-phenyl-oxazolidin-3-yl]acetic
##########          FlexRecCode: 1
##########               Number:                   99
##########   Ligand Source File: ./ligands-ampc-0000001.db2.gz
##########           GlobalRank: 14
##########                 Rank:                    1
##########               Setnum:                    3
##########             Matchnum:                 4526
##########                Cloud:                    1
##########        Electrostatic:           -51.544258
##########                 Gist:             0.969741
##########        Van der Waals:           -14.693221
##########  Ligand Polar Desolv:            24.483242
########## Ligand Apolar Desolv:            -1.500883
##########      Internal Energy:             0.000000
##########      Receptor Energy: 0.0
########## Receptor Desolvation:             0.000000
########## Receptor Hydrophobic:             0.000000
##########         Total Energy: -42.29
##########        Ligand Charge:            -1.000000
##########            Arbitrary:    +999.9990
##########     heavy atom count:   17
##########           pose count:    1
##########        Ligand Energy:             0.000000

@<TRIPOS>MOLECULE
              307      none
   25    26     0     0     0



@<TRIPOS>ATOM
      1 C1         46.6955    43.8925    42.2016 C.ar       1  LIG1  -0.1082
      2 C2         46.0054    42.6953    42.2436 C.ar       1  LIG1  -0.1264
      3 C3         45.5667    42.1089    41.0712 C.ar       1  LIG1  -0.0909
      4 C4         45.8175    42.7198    39.8569 C.ar       1  LIG1  -0.1027
      5 C5         46.5067    43.9175    39.8149 C.ar       1  LIG1  -0.0762
      6 C6         46.9466    44.5030    40.9872 C.ar       1  LIG1  -0.1164
      7 C7         45.3401    42.0800    38.5787 C.3        1  LIG1   0.0861
      8 H1         45.2689    40.9988    38.6973 H          1  LIG1   0.1503
      9 C8         44.0024    42.6577    38.1634 C.2        1  LIG1   0.5124
     10 O1         42.9608    42.6149    38.7823 O.2        1  LIG1  -0.4524
     11 N1         44.2142    43.2300    36.9607 N.am       1  LIG1  -0.5474
     12 C9         45.4909    43.0837    36.5833 C.2        1  LIG1   0.6506
     13 O2         45.9405    43.5094    35.5385 O.2        1  LIG1  -0.4749
     14 O3         46.2186    42.4101    37.4922 O.3        1  LIG1  -0.3011
     15 C10        43.1877    43.9185    36.1743 C.3        1  LIG1   0.0460
     16 C11        42.0706    42.9585    35.8562 C.2        1  LIG1   0.4884
     17 O4         40.9367    43.1947    36.2370 O.co2      1  LIG1  -0.6803
     18 O5         42.3005    41.9455    35.2178 O.co2      1  LIG1  -0.6852
     19 H2         47.0343    44.3528    43.1179 H          1  LIG1   0.1238
     20 H3         45.8096    42.2179    43.1924 H          1  LIG1   0.1258
     21 H4         45.0283    41.1733    41.1041 H          1  LIG1   0.1277
     22 H5         46.7030    44.3945    38.8660 H          1  LIG1   0.1288
     23 H6         47.4853    45.4385    40.9544 H          1  LIG1   0.1275
     24 H7         42.7934    44.7579    36.7470 H          1  LIG1   0.0983
     25 H8         43.6264    44.2859    35.2465 H          1  LIG1   0.0966
@<TRIPOS>BOND
     1    1    6 ar
     2    1    2 ar
     3    1   19 1
     4    2    3 ar
     5    2   20 1
     6    3    4 ar
     7    3   21 1
     8    4    5 ar
     9    4    7 1
    10    5    6 ar
    11    5   22 1
    12    6   23 1
    13    7    8 1
    14    7   14 1
    15    7    9 1
    16    9   10 2
    17    9   11 am
    18   11   12 am
    19   11   15 1
    20   12   13 2
    21   12   14 1
    22   15   16 1
    23   15   24 1
    24   15   25 1
    25   16   17 2
    26   16   18 1
##########                 Name:                  309
##########          Protonation:                 none
##########               SMILES:   Cc1ccoc1C(=O)Nc2ccccc2C(=O)O
##########            Long Name:   2-[(3-methylfuran-2-carbonyl)amino]benzoic
##########          FlexRecCode: 1
##########               Number:                   16
##########   Ligand Source File: ./ligands-ampc-0000001.db2.gz
##########           GlobalRank: 15
##########                 Rank:                    1
##########               Setnum:                   11
##########             Matchnum:                 1992
##########                Cloud:                    1
##########        Electrostatic:           -56.747532
##########                 Gist:             4.799207
##########        Van der Waals:           -16.029934
##########  Ligand Polar Desolv:            28.367661
########## Ligand Apolar Desolv:            -2.287998
##########      Internal Energy:             0.000000
##########      Receptor Energy: 0.0
########## Receptor Desolvation:             0.000000
########## Receptor Hydrophobic:             0.000000
##########         Total Energy: -41.9
##########        Ligand Charge:            -1.000000
##########            Arbitrary:    +999.9990
##########     heavy atom count:   18
##########           pose count:    1
##########        Ligand Energy:             0.000000

@<TRIPOS>MOLECULE
              309      none
   28    29     0     0     0



@<TRIPOS>ATOM
      1 C1         47.2917    41.9084    40.0099 C.3        1  LIG1  -0.0918
      2 C2         46.0478    41.0878    40.2341 C.2        1  LIG1  -0.0959
      3 C3         45.8498    40.1223    41.2332 C.2        1  LIG1  -0.2295
      4 C4         44.6005    39.6330    41.0718 C.2        1  LIG1  -0.0054
      5 O1         44.0280    40.2485    40.0291 O.3        1  LIG1  -0.1523
      6 C5         44.8923    41.1439    39.5078 C.2        1  LIG1  -0.0716
      7 C6         44.6370    42.0209    38.3613 C.2        1  LIG1   0.5913
      8 O2         44.6928    43.2292    38.4952 O.2        1  LIG1  -0.5201
      9 N1         44.3407    41.4891    37.1589 N.am       1  LIG1  -0.6291
     10 C7         44.0987    42.3209    36.0716 C.ar       1  LIG1   0.1749
     11 C8         44.7250    43.5578    35.9854 C.ar       1  LIG1  -0.1519
     12 C9         44.4832    44.3818    34.9054 C.ar       1  LIG1  -0.1067
     13 C10        43.6160    43.9848    33.8991 C.ar       1  LIG1  -0.1588
     14 C11        42.9849    42.7627    33.9661 C.ar       1  LIG1  -0.0654
     15 C12        43.2240    41.9128    35.0510 C.ar       1  LIG1  -0.1682
     16 C13        42.5589    40.6027    35.1260 C.2        1  LIG1   0.5272
     17 O3         42.7668    39.8645    36.0792 O.co2      1  LIG1  -0.6767
     18 O4         41.7977    40.2513    34.2348 O.co2      1  LIG1  -0.6870
     19 H1         48.0441    41.6375    40.7505 H          1  LIG1   0.0711
     20 H2         47.6797    41.7144    39.0100 H          1  LIG1   0.0638
     21 H3         47.0509    42.9671    40.1071 H          1  LIG1   0.0869
     22 H4         46.5623    39.8257    41.9888 H          1  LIG1   0.1539
     23 H5         44.1396    38.8712    41.6831 H          1  LIG1   0.2085
     24 H6         44.2963    40.5261    37.0522 H          1  LIG1   0.4332
     25 H7         45.4017    43.8751    36.7651 H          1  LIG1   0.1393
     26 H8         44.9726    45.3425    34.8436 H          1  LIG1   0.1161
     27 H9         43.4343    44.6378    33.0583 H          1  LIG1   0.1148
     28 H10        42.3099    42.4590    33.1797 H          1  LIG1   0.1292
@<TRIPOS>BOND
     1    1    2 1
     2    1   19 1
     3    1   20 1
     4    1   21 1
     5    2    6 2
     6    2    3 1
     7    3    4 2
     8    3   22 1
     9    4    5 1
    10    4   23 1
    11    5    6 1
    12    6    7 1
    13    7    8 2
    14    7    9 am
    15    9   10 1
    16    9   24 1
    17   10   15 ar
    18   10   11 ar
    19   11   12 ar
    20   11   25 1
    21   12   13 ar
    22   12   26 1
    23   13   14 ar
    24   13   27 1
    25   14   15 ar
    26   14   28 1
    27   15   16 1
    28   16   17 2
    29   16   18 1
##########                 Name:                  211
##########          Protonation:                 none
##########               SMILES:   c1ccc2c(c1)cccc2C[C@H](C(=O)O)N3C(=O)c4ccc(cc4C3=O)C(=O)O
##########            Long Name:   hydroxy-1-(1-naphthylmethyl)-2-oxo-ethyl]-1,3-dioxo-isoindoline-5-carboxylic
##########          FlexRecCode: 1
##########               Number:                   69
##########   Ligand Source File: ./ligands-ampc-0000001.db2.gz
##########           GlobalRank: 16
##########                 Rank:                    1
##########               Setnum:                    1
##########             Matchnum:                 5176
##########                Cloud:                    1
##########        Electrostatic:           -52.820599
##########                 Gist:             3.296065
##########        Van der Waals:           -19.876312
##########  Ligand Polar Desolv:            31.328785
########## Ligand Apolar Desolv:            -3.606329
##########      Internal Energy:             0.000000
##########      Receptor Energy: 0.0
########## Receptor Desolvation:             0.000000
########## Receptor Hydrophobic:             0.000000
##########         Total Energy: -41.68
##########        Ligand Charge:            -2.000000
##########            Arbitrary:    +999.9990
##########     heavy atom count:   29
##########           pose count:    1
##########        Ligand Energy:             0.000000

@<TRIPOS>MOLECULE
              211      none
   42    45     0     0     0



@<TRIPOS>ATOM
      1 C1         48.2297    41.8146    43.8881 C.ar       1  LIG1  -0.1179
      2 C2         48.9980    42.5791    43.0119 C.ar       1  LIG1  -0.1287
      3 C3         48.4184    43.2757    41.9966 C.ar       1  LIG1  -0.0917
      4 C4         47.0242    43.2254    41.8259 C.ar       1  LIG1  -0.0452
      5 C5         46.2428    42.4474    42.7167 C.ar       1  LIG1  -0.0470
      6 C6         46.8773    41.7421    43.7536 C.ar       1  LIG1  -0.1145
      7 C7         44.8491    42.3967    42.5458 C.ar       1  LIG1  -0.1238
      8 C8         44.2693    43.0930    41.5301 C.ar       1  LIG1  -0.1014
      9 C9         45.0376    43.8573    40.6542 C.ar       1  LIG1  -0.1198
     10 C10        46.3901    43.9305    40.7893 C.ar       1  LIG1  -0.0515
     11 C11        47.2029    44.7635    39.8322 C.3        1  LIG1  -0.0845
     12 C12        47.6267    43.9030    38.6402 C.3        1  LIG1   0.0815
     13 H1         47.9061    42.9093    38.9905 H          1  LIG1   0.0963
     14 C13        48.8050    44.5429    37.9524 C.2        1  LIG1   0.4927
     15 O1         48.9686    44.3892    36.7540 O.co2      1  LIG1  -0.6929
     16 O2         49.5948    45.2141    38.5943 O.co2      1  LIG1  -0.6584
     17 N1         46.5115    43.7924    37.6967 N.am       1  LIG1  -0.5482
     18 C14        45.9293    44.8372    37.0812 C.2        1  LIG1   0.5764
     19 O3         46.2396    46.0031    37.2171 O.2        1  LIG1  -0.4388
     20 C15        44.8460    44.3264    36.2097 C.ar       1  LIG1  -0.1411
     21 C16        43.9303    44.9244    35.3587 C.ar       1  LIG1  -0.0683
     22 C17        43.0199    44.1446    34.6660 C.ar       1  LIG1  -0.0691
     23 C18        43.0195    42.7573    34.8210 C.ar       1  LIG1  -0.1223
     24 C19        43.9407    42.1466    35.6781 C.ar       1  LIG1  -0.0117
     25 C20        44.8515    42.9257    36.3706 C.ar       1  LIG1  -0.1595
     26 C21        45.9391    42.6325    37.3279 C.2        1  LIG1   0.5738
     27 O4         46.2605    41.5283    37.7184 O.2        1  LIG1  -0.4870
     28 C22        42.0438    41.9327    34.0786 C.2        1  LIG1   0.5254
     29 O5         41.2377    42.4655    33.3294 O.co2      1  LIG1  -0.6848
     30 O6         42.0425    40.7175    34.2135 O.co2      1  LIG1  -0.6808
     31 H2         48.7151    41.2679    44.6831 H          1  LIG1   0.1162
     32 H3         50.0696    42.6195    43.1407 H          1  LIG1   0.1198
     33 H4         49.0265    43.8645    41.3259 H          1  LIG1   0.1349
     34 H5         46.2948    41.1454    44.4400 H          1  LIG1   0.1206
     35 H6         44.2411    41.8079    43.2167 H          1  LIG1   0.1217
     36 H7         43.1979    43.0523    41.4008 H          1  LIG1   0.1207
     37 H8         44.5525    44.4001    39.8563 H          1  LIG1   0.1181
     38 H9         46.6022    45.6019    39.4796 H          1  LIG1   0.0899
     39 H10        48.0898    45.1408    40.3414 H          1  LIG1   0.0892
     40 H11        43.9265    45.9975    35.2364 H          1  LIG1   0.1316
     41 H12        42.3066    44.6117    34.0031 H          1  LIG1   0.1404
     42 H13        43.9411    41.0734    35.7991 H          1  LIG1   0.1397
@<TRIPOS>BOND
     1    1    6 ar
     2    1    2 ar
     3    1   31 1
     4    2    3 ar
     5    2   32 1
     6    3    4 ar
     7    3   33 1
     8    4   10 ar
     9    4    5 ar
    10    5    6 ar
    11    5    7 ar
    12    6   34 1
    13    7    8 ar
    14    7   35 1
    15    8    9 ar
    16    8   36 1
    17    9   10 ar
    18    9   37 1
    19   10   11 1
    20   11   12 1
    21   11   38 1
    22   11   39 1
    23   12   13 1
    24   12   14 1
    25   12   17 1
    26   14   15 2
    27   14   16 1
    28   17   26 am
    29   17   18 am
    30   18   19 2
    31   18   20 1
    32   20   25 ar
    33   20   21 ar
    34   21   22 ar
    35   21   40 1
    36   22   23 ar
    37   22   41 1
    38   23   24 ar
    39   23   28 1
    40   24   25 ar
    41   24   42 1
    42   25   26 1
    43   26   27 2
    44   28   29 2
    45   28   30 1
##########                 Name:                  117
##########          Protonation:                 none
##########               SMILES:   c1cc(cc(c1)[N+](=O)[O-])NS(=O)(=O)c2ccsc2C(=O)O
##########            Long Name:   3-[(3-nitrophenyl)sulfamoyl]thiophene-2-carboxylic
##########          FlexRecCode: 1
##########               Number:                   59
##########   Ligand Source File: ./ligands-ampc-0000001.db2.gz
##########           GlobalRank: 17
##########                 Rank:                    1
##########               Setnum:                   60
##########             Matchnum:                 4402
##########                Cloud:                    1
##########        Electrostatic:           -96.575706
##########                 Gist:             4.486503
##########        Van der Waals:           -12.629441
##########  Ligand Polar Desolv:            65.006783
########## Ligand Apolar Desolv:            -1.476580
##########      Internal Energy:             0.000000
##########      Receptor Energy: 0.0
########## Receptor Desolvation:             0.000000
########## Receptor Hydrophobic:             0.000000
##########         Total Energy: -41.19
##########        Ligand Charge:            -2.000000
##########            Arbitrary:    +999.9990
##########     heavy atom count:   21
##########           pose count:    1
##########        Ligand Energy:             0.000000

@<TRIPOS>MOLECULE
              117      none
   27    28     0     0     0



@<TRIPOS>ATOM
      1 C1         45.1192    40.8520    40.4632 C.ar       1  LIG1  -0.0586
      2 C2         43.8364    41.0179    39.9784 C.ar       1  LIG1  -0.2321
      3 C3         43.6372    41.3445    38.6433 C.ar       1  LIG1   0.2979
      4 C4         44.7296    41.5032    37.7997 C.ar       1  LIG1  -0.1202
      5 C5         46.0092    41.3359    38.2908 C.ar       1  LIG1  -0.0024
      6 C6         46.2041    41.0107    39.6209 C.ar       1  LIG1  -0.1969
      7 N1         47.1736    41.5048    37.3930 N.pl3      1  LIG1   0.0474
      8 O1         48.2943    41.3586    37.8225 O.2        1  LIG1  -0.1823
      9 O2         47.0041    41.7891    36.2302 O.3        1  LIG1  -0.1964
     10 N2         42.3414    41.5126    38.1496 N.2        1  LIG1  -1.0501
     11 S1         41.8864    42.9642    37.4955 S.o2       1  LIG1   2.6475
     12 O3         40.5833    42.7780    36.9602 O.2        1  LIG1  -1.0540
     13 O4         42.1745    43.9571    38.4705 O.2        1  LIG1  -0.9908
     14 C7         42.9527    43.2767    36.1281 C.2        1  LIG1  -0.6619
     15 C8         43.9034    44.2660    36.1547 C.2        1  LIG1  -0.0933
     16 C9         44.6922    44.4532    35.0661 C.2        1  LIG1  -0.3092
     17 S2         44.1676    43.2916    33.9718 S.3        1  LIG1   0.1650
     18 C10        42.8887    42.5334    34.9557 C.2        1  LIG1  -0.0464
     19 C11        42.0291    41.4551    34.6269 C.2        1  LIG1   0.5278
     20 O5         40.9503    41.6737    34.0895 O.co2      1  LIG1  -0.5985
     21 O6         42.3652    40.3047    34.8804 O.co2      1  LIG1  -0.6911
     22 H1         45.2750    40.6024    41.5024 H          1  LIG1   0.1201
     23 H2         42.9894    40.8934    40.6368 H          1  LIG1   0.1103
     24 H3         44.5781    41.7568    36.7609 H          1  LIG1   0.1397
     25 H4         47.2060    40.8804    40.0026 H          1  LIG1   0.1249
     26 H5         44.0222    44.8873    37.0301 H          1  LIG1   0.1305
     27 H6         45.4775    45.1828    34.9335 H          1  LIG1   0.1729
@<TRIPOS>BOND
     1    1    6 ar
     2    1    2 ar
     3    1   22 1
     4    2    3 ar
     5    2   23 1
     6    3    4 ar
     7    3   10 1
     8    4    5 ar
     9    4   24 1
    10    5    6 ar
    11    5    7 1
    12    6   25 1
    13    7    8 2
    14    7    9 1
    15   10   11 1
    16   11   12 2
    17   11   13 2
    18   11   14 1
    19   14   18 2
    20   14   15 1
    21   15   16 2
    22   15   26 1
    23   16   17 1
    24   16   27 1
    25   17   18 1
    26   18   19 1
    27   19   20 2
    28   19   21 1
##########                 Name:                  202
##########          Protonation:                 none
##########               SMILES:   c1ccc(cc1)C[C@H](C(=O)O)N2C(=O)c3ccc(cc3C2=O)C(=O)O
##########            Long Name:   2-[(1R)-1-benzyl-2-hydroxy-2-oxo-ethyl]-1,3-dioxo-isoindoline-5-carboxylic
##########          FlexRecCode: 1
##########               Number:                   65
##########   Ligand Source File: ./ligands-ampc-0000001.db2.gz
##########           GlobalRank: 18
##########                 Rank:                    1
##########               Setnum:                    7
##########             Matchnum:                 4246
##########                Cloud:                    1
##########        Electrostatic:           -47.994469
##########                 Gist:             2.084945
##########        Van der Waals:           -24.722969
##########  Ligand Polar Desolv:            34.411674
########## Ligand Apolar Desolv:            -3.537306
##########      Internal Energy:             0.000000
##########      Receptor Energy: 0.0
########## Receptor Desolvation:             0.000000
########## Receptor Hydrophobic:             0.000000
##########         Total Energy: -39.76
##########        Ligand Charge:            -2.000000
##########            Arbitrary:    +999.9990
##########     heavy atom count:   25
##########           pose count:    1
##########        Ligand Energy:             0.000000

@<TRIPOS>MOLECULE
              202      none
   36    38     0     0     0



@<TRIPOS>ATOM
      1 C1         45.9647    40.0539    41.3298 C.ar       1  LIG1  -0.1329
      2 C2         45.0048    40.7461    40.6155 C.ar       1  LIG1  -0.1209
      3 C3         45.3178    41.9606    40.0342 C.ar       1  LIG1  -0.1161
      4 C4         46.5905    42.4832    40.1678 C.ar       1  LIG1  -0.0681
      5 C5         47.5502    41.7914    40.8829 C.ar       1  LIG1  -0.1138
      6 C6         47.2376    40.5763    41.4630 C.ar       1  LIG1  -0.1164
      7 C7         46.9320    43.8068    39.5332 C.3        1  LIG1  -0.0817
      8 C8         47.4533    43.5725    38.1140 C.3        1  LIG1   0.0798
      9 C9         48.2376    44.7773    37.6618 C.2        1  LIG1   0.4963
     10 O1         49.4124    44.6606    37.3569 O.co2      1  LIG1  -0.6934
     11 O2         47.6974    45.8685    37.6007 O.co2      1  LIG1  -0.6647
     12 N1         46.3227    43.3574    37.2076 N.am       1  LIG1  -0.5444
     13 C10        45.3414    44.2514    36.9899 C.2        1  LIG1   0.5837
     14 O3         45.2536    45.3472    37.5052 O.2        1  LIG1  -0.4544
     15 C11        44.3863    43.6744    36.0160 C.ar       1  LIG1  -0.1409
     16 C12        43.2137    44.1263    35.4319 C.ar       1  LIG1  -0.0680
     17 C13        42.5353    43.3211    34.5328 C.ar       1  LIG1  -0.0692
     18 C14        43.0270    42.0548    34.2116 C.ar       1  LIG1  -0.1220
     19 C15        44.2097    41.5919    34.7971 C.ar       1  LIG1  -0.0117
     20 C16        44.8887    42.3966    35.6959 C.ar       1  LIG1  -0.1588
     21 C17        46.1326    42.2426    36.4797 C.2        1  LIG1   0.5762
     22 O4         46.8602    41.2702    36.4700 O.2        1  LIG1  -0.4889
     23 C18        42.2961    41.2017    33.2517 C.2        1  LIG1   0.5253
     24 O5         41.2618    41.6053    32.7395 O.co2      1  LIG1  -0.6847
     25 O6         42.7257    40.0924    32.9696 O.co2      1  LIG1  -0.6808
     26 H1         45.7189    39.1072    41.7877 H          1  LIG1   0.1153
     27 H2         44.0104    40.3378    40.5111 H          1  LIG1   0.1163
     28 H3         44.5680    42.5010    39.4755 H          1  LIG1   0.1216
     29 H4         48.5447    42.1996    40.9869 H          1  LIG1   0.1145
     30 H5         47.9874    40.0356    42.0214 H          1  LIG1   0.1182
     31 H6         46.0398    44.4317    39.4939 H          1  LIG1   0.0837
     32 H7         47.6995    44.3060    40.1246 H          1  LIG1   0.0916
     33 H8         48.0988    42.6942    38.1044 H          1  LIG1   0.0974
     34 H9         42.8294    45.1051    35.6781 H          1  LIG1   0.1314
     35 H10        41.6216    43.6743    34.0782 H          1  LIG1   0.1405
     36 H11        44.5910    40.6121    34.5496 H          1  LIG1   0.1400
@<TRIPOS>BOND
     1    1    6 ar
     2    1    2 ar
     3    1   26 1
     4    2    3 ar
     5    2   27 1
     6    3    4 ar
     7    3   28 1
     8    4    5 ar
     9    4    7 1
    10    5    6 ar
    11    5   29 1
    12    6   30 1
    13    7    8 1
    14    7   31 1
    15    7   32 1
    16    8    9 1
    17    8   12 1
    18    8   33 1
    19    9   10 2
    20    9   11 1
    21   12   21 am
    22   12   13 am
    23   13   14 2
    24   13   15 1
    25   15   20 ar
    26   15   16 ar
    27   16   17 ar
    28   16   34 1
    29   17   18 ar
    30   17   35 1
    31   18   19 ar
    32   18   23 1
    33   19   20 ar
    34   19   36 1
    35   20   21 1
    36   21   22 2
    37   23   24 2
    38   23   25 1
##########                 Name:                  303
##########          Protonation:                 none
##########               SMILES:   CCc1c([nH]n(c1=O)c2[n-]nnn2)C
##########            Long Name:   5-methyl-2-(1,2,3-triaza-4-azanidacyclopenta-2,5-dien-5-yl)-1H-pyrazol-3-one
##########          FlexRecCode: 1
##########               Number:                   72
##########   Ligand Source File: ./ligands-ampc-0000001.db2.gz
##########           GlobalRank: 19
##########                 Rank:                    1
##########               Setnum:                    2
##########             Matchnum:                 2227
##########                Cloud:                    1
##########        Electrostatic:           -51.951904
##########                 Gist:             5.801749
##########        Van der Waals:           -19.697027
##########  Ligand Polar Desolv:            27.147320
########## Ligand Apolar Desolv:            -0.829966
##########      Internal Energy:             0.000000
##########      Receptor Energy: 0.0
########## Receptor Desolvation:             0.000000
########## Receptor Hydrophobic:             0.000000
##########         Total Energy: -39.53
##########        Ligand Charge:            -1.000000
##########            Arbitrary:    +999.9990
##########     heavy atom count:   14
##########           pose count:    1
##########        Ligand Energy:             0.000000

@<TRIPOS>MOLECULE
              303      none
   23    24     0     0     0



@<TRIPOS>ATOM
      1 C1         44.6869    40.8213    40.6574 C.3        1  LIG1  -0.1457
      2 C2         44.1516    42.0657    39.9460 C.3        1  LIG1  -0.0241
      3 C3         44.4500    41.9690    38.4720 C.2        1  LIG1  -0.3161
      4 C4         45.5651    42.4159    37.8587 C.2        1  LIG1   0.1753
      5 N1         45.4621    42.1449    36.5239 N.pl3      1  LIG1  -0.4756
      6 H1         46.1238    42.3580    35.8474 H          1  LIG1   0.4427
      7 N2         44.2355    41.5053    36.3013 N.am       1  LIG1  -0.3036
      8 C5         43.6124    41.3887    37.4918 C.2        1  LIG1   0.5389
      9 O1         42.5241    40.8785    37.6867 O.2        1  LIG1  -0.5245
     10 C6         43.7524    41.0662    35.0792 C.2        1  LIG1   0.2820
     11 N3         42.5869    40.4627    34.8543 N.2        1  LIG1  -0.3469
     12 N4         42.5148    40.2167    33.5908 N.2        1  LIG1  -0.1759
     13 N5         43.5854    40.6403    33.0154 N.2        1  LIG1  -0.1752
     14 N6         44.3603    41.1702    33.8990 N.2        1  LIG1  -0.3986
     15 C7         46.7275    43.0988    38.5321 C.3        1  LIG1  -0.0940
     16 H2         44.4711    40.8912    41.7235 H          1  LIG1   0.0499
     17 H3         44.2064    39.9333    40.2468 H          1  LIG1   0.0486
     18 H4         45.7644    40.7530    40.5085 H          1  LIG1   0.0558
     19 H5         43.0740    42.1341    40.0949 H          1  LIG1   0.0635
     20 H6         44.6322    42.9537    40.3565 H          1  LIG1   0.0685
     21 H7         47.4837    43.3474    37.7876 H          1  LIG1   0.0868
     22 H8         46.3813    44.0115    39.0173 H          1  LIG1   0.0752
     23 H9         47.1581    42.4314    39.2787 H          1  LIG1   0.0931
@<TRIPOS>BOND
     1    1    2 1
     2    1   16 1
     3    1   17 1
     4    1   18 1
     5    2    3 1
     6    2   19 1
     7    2   20 1
     8    3    8 1
     9    3    4 2
    10    4    5 1
    11    4   15 1
    12    5    6 1
    13    5    7 1
    14    7    8 am
    15    7   10 1
    16    8    9 2
    17   10   14 2
    18   10   11 1
    19   11   12 1
    20   12   13 2
    21   13   14 1
    22   15   21 1
    23   15   22 1
    24   15   23 1
##########                 Name:                  304
##########          Protonation:                 none
##########               SMILES:   C[C@@H]([C@H](C(=O)O)N1C(=O)c2ccccc2C1=O)O
##########            Long Name:   (2R,3S)-2-(1,3-dioxoisoindolin-2-yl)-3-hydroxy-butanoic
##########          FlexRecCode: 1
##########               Number:                   67
##########   Ligand Source File: ./ligands-ampc-0000001.db2.gz
##########           GlobalRank: 20
##########                 Rank:                    1
##########               Setnum:                    9
##########             Matchnum:                 7458
##########                Cloud:                    1
##########        Electrostatic:           -56.652153
##########                 Gist:             4.955758
##########        Van der Waals:           -19.232763
##########  Ligand Polar Desolv:            34.119431
########## Ligand Apolar Desolv:            -2.081333
##########      Internal Energy:             0.000000
##########      Receptor Energy: 0.0
########## Receptor Desolvation:             0.000000
########## Receptor Hydrophobic:             0.000000
##########         Total Energy: -38.89
##########        Ligand Charge:            -1.000000
##########            Arbitrary:    +999.9990
##########     heavy atom count:   18
##########           pose count:    1
##########        Ligand Energy:             0.000000

@<TRIPOS>MOLECULE
              304      none
   28    29     0     0     0



@<TRIPOS>ATOM
      1 C1         42.6265    43.1027    33.6897 C.3        1  LIG1  -0.1810
      2 C2         42.8939    42.6369    35.1224 C.3        1  LIG1   0.1014
      3 H1         41.9927    42.1787    35.5297 H          1  LIG1   0.0724
      4 C3         44.0310    41.6133    35.1220 C.3        1  LIG1   0.0749
      5 H2         44.8009    41.9257    34.4165 H          1  LIG1   0.1091
      6 C4         43.4935    40.2656    34.7148 C.2        1  LIG1   0.5032
      7 O1         43.9341    39.7076    33.7242 O.co2      1  LIG1  -0.6914
      8 O2         42.6180    39.7333    35.3755 O.co2      1  LIG1  -0.6654
      9 N1         44.6075    41.5232    36.4658 N.am       1  LIG1  -0.5382
     10 C5         45.8925    41.7896    36.7622 C.2        1  LIG1   0.5649
     11 O3         46.7453    42.1368    35.9704 O.2        1  LIG1  -0.3920
     12 C6         46.0925    41.5888    38.2129 C.ar       1  LIG1  -0.1196
     13 C7         47.1778    41.7099    39.0660 C.ar       1  LIG1  -0.0584
     14 C8         47.0236    41.4390    40.4166 C.ar       1  LIG1  -0.1011
     15 C9         45.7957    41.0492    40.9174 C.ar       1  LIG1  -0.1115
     16 C10        44.7013    40.9239    40.0760 C.ar       1  LIG1  -0.0522
     17 C11        44.8404    41.1914    38.7235 C.ar       1  LIG1  -0.1397
     18 C12        43.9205    41.1689    37.5667 C.2        1  LIG1   0.5668
     19 O4         42.7421    40.8774    37.6037 O.2        1  LIG1  -0.4919
     20 O5         43.2633    43.7589    35.9269 O.3        1  LIG1  -0.5247
     21 H3         43.5277    43.5609    33.2824 H          1  LIG1   0.0636
     22 H4         42.3448    42.2472    33.0762 H          1  LIG1   0.0566
     23 H5         41.8164    43.8321    33.6901 H          1  LIG1   0.0525
     24 H6         48.1396    42.0137    38.6801 H          1  LIG1   0.1385
     25 H7         47.8690    41.5326    41.0822 H          1  LIG1   0.1356
     26 H8         45.6882    40.8405    41.9716 H          1  LIG1   0.1352
     27 H9         43.7442    40.6187    40.4728 H          1  LIG1   0.1365
     28 H10        44.0589    44.2162    35.6222 H          1  LIG1   0.3557
@<TRIPOS>BOND
     1    1    2 1
     2    1   21 1
     3    1   22 1
     4    1   23 1
     5    2    3 1
     6    2    4 1
     7    2   20 1
     8    4    5 1
     9    4    6 1
    10    4    9 1
    11    6    7 2
    12    6    8 1
    13    9   18 am
    14    9   10 am
    15   10   11 2
    16   10   12 1
    17   12   17 ar
    18   12   13 ar
    19   13   14 ar
    20   13   24 1
    21   14   15 ar
    22   14   25 1
    23   15   16 ar
    24   15   26 1
    25   16   17 ar
    26   16   27 1
    27   17   18 1
    28   18   19 2
    29   20   28 1
##########                 Name:                  205
##########          Protonation:                 none
##########               SMILES:   c1ccc(cc1)C[C@H](C(=O)O)N2C(=O)c3ccccc3C2=O
##########            Long Name:   (2R)-2-(1,3-dioxoisoindolin-2-yl)-3-phenyl-propanoic
##########          FlexRecCode: 1
##########               Number:                   37
##########   Ligand Source File: ./ligands-ampc-0000001.db2.gz
##########           GlobalRank: 21
##########                 Rank:                    1
##########               Setnum:                    4
##########             Matchnum:                 3622
##########                Cloud:                    1
##########        Electrostatic:           -52.864918
##########                 Gist:             1.210442
##########        Van der Waals:           -14.365612
##########  Ligand Polar Desolv:            30.473114
########## Ligand Apolar Desolv:            -3.314144
##########      Internal Energy:             0.000000
##########      Receptor Energy: 0.0
########## Receptor Desolvation:             0.000000
########## Receptor Hydrophobic:             0.000000
##########         Total Energy: -38.86
##########        Ligand Charge:            -1.000000
##########            Arbitrary:    +999.9990
##########     heavy atom count:   22
##########           pose count:    1
##########        Ligand Energy:             0.000000

@<TRIPOS>MOLECULE
              205      none
   34    36     0     0     0



@<TRIPOS>ATOM
      1 C1         47.2587    46.4466    35.2298 C.ar       1  LIG1  -0.1318
      2 C2         46.5859    46.2641    36.4235 C.ar       1  LIG1  -0.1179
      3 C3         45.3445    45.6558    36.4312 C.ar       1  LIG1  -0.1137
      4 C4         44.7759    45.2306    35.2452 C.ar       1  LIG1  -0.0692
      5 C5         45.4483    45.4140    34.0514 C.ar       1  LIG1  -0.1177
      6 C6         46.6902    46.0209    34.0439 C.ar       1  LIG1  -0.1189
      7 C7         43.4229    44.5666    35.2537 C.3        1  LIG1  -0.0833
      8 C8         43.5977    43.0553    35.4154 C.3        1  LIG1   0.0786
      9 C9         42.3510    42.3522    34.9438 C.2        1  LIG1   0.4958
     10 O1         42.4128    41.5516    34.0263 O.co2      1  LIG1  -0.6844
     11 O2         41.2807    42.5839    35.4797 O.co2      1  LIG1  -0.6678
     12 N1         43.8325    42.7390    36.8265 N.am       1  LIG1  -0.5395
     13 C10        44.9364    42.1307    37.2967 C.2        1  LIG1   0.5755
     14 O3         45.8815    41.7619    36.6291 O.2        1  LIG1  -0.4377
     15 C11        44.8067    41.9865    38.7621 C.ar       1  LIG1  -0.1253
     16 C12        45.6096    41.4514    39.7566 C.ar       1  LIG1  -0.0546
     17 C13        45.1795    41.4755    41.0741 C.ar       1  LIG1  -0.1017
     18 C14        43.9561    42.0291    41.4019 C.ar       1  LIG1  -0.1071
     19 C15        43.1423    42.5680    40.4176 C.ar       1  LIG1  -0.0519
     20 C16        43.5592    42.5509    39.0962 C.ar       1  LIG1  -0.1349
     21 C17        42.9752    43.0237    37.8233 C.2        1  LIG1   0.5700
     22 O4         41.9004    43.5751    37.6981 O.2        1  LIG1  -0.4806
     23 H1         48.2265    46.9258    35.2234 H          1  LIG1   0.1167
     24 H2         47.0301    46.5964    37.3501 H          1  LIG1   0.1190
     25 H3         44.8192    45.5127    37.3639 H          1  LIG1   0.1240
     26 H4         45.0041    45.0814    33.1249 H          1  LIG1   0.1118
     27 H5         47.2158    46.1638    33.1113 H          1  LIG1   0.1169
     28 H6         42.8330    44.9550    36.0839 H          1  LIG1   0.0841
     29 H7         42.9101    44.7747    34.3148 H          1  LIG1   0.0958
     30 H8         44.4492    42.7224    34.8218 H          1  LIG1   0.1005
     31 H9         46.5663    41.0173    39.5062 H          1  LIG1   0.1392
     32 H10        45.8046    41.0584    41.8499 H          1  LIG1   0.1367
     33 H11        43.6318    42.0415    42.4319 H          1  LIG1   0.1362
     34 H12        42.1873    42.9989    40.6794 H          1  LIG1   0.1373
@<TRIPOS>BOND
     1    1    6 ar
     2    1    2 ar
     3    1   23 1
     4    2    3 ar
     5    2   24 1
     6    3    4 ar
     7    3   25 1
     8    4    5 ar
     9    4    7 1
    10    5    6 ar
    11    5   26 1
    12    6   27 1
    13    7    8 1
    14    7   28 1
    15    7   29 1
    16    8    9 1
    17    8   12 1
    18    8   30 1
    19    9   10 2
    20    9   11 1
    21   12   21 am
    22   12   13 am
    23   13   14 2
    24   13   15 1
    25   15   20 ar
    26   15   16 ar
    27   16   17 ar
    28   16   31 1
    29   17   18 ar
    30   17   32 1
    31   18   19 ar
    32   18   33 1
    33   19   20 ar
    34   19   34 1
    35   20   21 1
    36   21   22 2
##########                 Name:                  207
##########          Protonation:                 none
##########               SMILES:   c1ccc2c(c1)cccc2C[C@H](Cc3cnn[nH]3)N4C(=O)c5ccc(cc5C4=O)C(=O)O
##########            Long Name:   naphthylmethyl)-2-(1H-triazol-5-yl)ethyl]-1,3-dioxo-isoindoline-5-carboxylic
##########          FlexRecCode: 1
##########               Number:                    7
##########   Ligand Source File: ./ligands-ampc-0000001.db2.gz
##########           GlobalRank: 22
##########                 Rank:                    1
##########               Setnum:                   57
##########             Matchnum:                 5743
##########                Cloud:                    1
##########        Electrostatic:           -42.237228
##########                 Gist:             3.451273
##########        Van der Waals:           -24.747665
##########  Ligand Polar Desolv:            26.797573
########## Ligand Apolar Desolv:            -2.064308
##########      Internal Energy:             0.000000
##########      Receptor Energy: 0.0
########## Receptor Desolvation:             0.000000
########## Receptor Hydrophobic:             0.000000
##########         Total Energy: -38.8
##########        Ligand Charge:            -1.000000
##########            Arbitrary:    +999.9990
##########     heavy atom count:   32
##########           pose count:    1
##########        Ligand Energy:             0.000000

@<TRIPOS>MOLECULE
              207      none
   49    53     0     0     0



@<TRIPOS>ATOM
      1 C1         48.2037    46.9057    44.3551 C.ar       1  LIG1  -0.1194
      2 C2         47.4118    47.1830    43.2421 C.ar       1  LIG1  -0.1166
      3 C3         47.1284    46.2177    42.3255 C.ar       1  LIG1  -0.1060
      4 C4         47.6406    44.9207    42.5007 C.ar       1  LIG1  -0.0408
      5 C5         48.4464    44.6387    43.6323 C.ar       1  LIG1  -0.0495
      6 C6         48.7170    45.6616    44.5575 C.ar       1  LIG1  -0.1043
      7 C7         48.9589    43.3423    43.8072 C.ar       1  LIG1  -0.1076
      8 C8         48.6759    42.3769    42.8902 C.ar       1  LIG1  -0.1089
      9 C9         47.8843    42.6542    41.7776 C.ar       1  LIG1  -0.1060
     10 C10        47.3702    43.8983    41.5757 C.ar       1  LIG1  -0.0726
     11 C11        46.5154    44.1776    40.3665 C.3        1  LIG1  -0.0984
     12 C12        47.1683    43.5620    39.1273 C.3        1  LIG1   0.1536
     13 H1         47.5844    42.5872    39.3821 H          1  LIG1   0.1146
     14 C13        48.2870    44.4800    38.6309 C.3        1  LIG1  -0.0465
     15 C14        49.2312    43.6945    37.7576 C.2        1  LIG1   0.0018
     16 C15        49.1508    43.5214    36.3740 C.2        1  LIG1  -0.0145
     17 N1         50.1771    42.7702    36.0450 N.2        1  LIG1  -0.2817
     18 N2         50.8435    42.4927    37.1092 N.pl3      1  LIG1  -0.2464
     19 N3         50.3020    43.0368    38.1410 N.2        1  LIG1  -0.2704
     20 H2         51.6470    41.9499    37.1304 H          1  LIG1   0.4686
     21 N4         46.1630    43.4034    38.0735 N.am       1  LIG1  -0.5672
     22 C16        45.4609    44.4157    37.5334 C.2        1  LIG1   0.5840
     23 O1         45.5581    45.5873    37.8369 O.2        1  LIG1  -0.4767
     24 C17        44.5492    43.8610    36.5062 C.ar       1  LIG1  -0.1609
     25 C18        43.6130    44.4149    35.6478 C.ar       1  LIG1  -0.0554
     26 C19        42.9032    43.6005    34.7819 C.ar       1  LIG1  -0.0670
     27 C20        43.1258    42.2226    34.7696 C.ar       1  LIG1  -0.1058
     28 C21        44.0692    41.6563    35.6331 C.ar       1  LIG1  -0.0083
     29 C22        44.7795    42.4701    36.4988 C.ar       1  LIG1  -0.1622
     30 C23        45.8250    42.2274    37.5152 C.2        1  LIG1   0.5788
     31 O2         46.2980    41.1458    37.8007 O.2        1  LIG1  -0.4624
     32 C24        42.3632    41.3606    33.8429 C.2        1  LIG1   0.5201
     33 O3         41.5380    41.8544    33.0879 O.co2      1  LIG1  -0.6753
     34 O4         42.5574    40.1535    33.8313 O.co2      1  LIG1  -0.6745
     35 H3         48.4169    47.6909    45.0652 H          1  LIG1   0.1205
     36 H4         47.0170    48.1789    43.1051 H          1  LIG1   0.1211
     37 H5         46.5128    46.4471    41.4685 H          1  LIG1   0.1265
     38 H6         49.3292    45.4616    45.4244 H          1  LIG1   0.1251
     39 H7         49.5746    43.1131    44.6644 H          1  LIG1   0.1263
     40 H8         49.0712    41.3811    43.0269 H          1  LIG1   0.1243
     41 H9         47.6751    41.8700    41.0650 H          1  LIG1   0.1183
     42 H10        45.5273    43.7410    40.5113 H          1  LIG1   0.0965
     43 H11        46.4201    45.2549    40.2298 H          1  LIG1   0.0959
     44 H12        47.8562    45.2992    38.0552 H          1  LIG1   0.1061
     45 H13        48.8320    44.8831    39.4844 H          1  LIG1   0.1027
     46 H14        48.3988    43.9226    35.7107 H          1  LIG1   0.1966
     47 H15        43.4370    45.4804    35.6544 H          1  LIG1   0.1353
     48 H16        42.1737    44.0332    34.1133 H          1  LIG1   0.1465
     49 H17        44.2421    40.5902    35.6248 H          1  LIG1   0.1424
@<TRIPOS>BOND
     1    1    6 ar
     2    1    2 ar
     3    1   35 1
     4    2    3 ar
     5    2   36 1
     6    3    4 ar
     7    3   37 1
     8    4   10 ar
     9    4    5 ar
    10    5    6 ar
    11    5    7 ar
    12    6   38 1
    13    7    8 ar
    14    7   39 1
    15    8    9 ar
    16    8   40 1
    17    9   10 ar
    18    9   41 1
    19   10   11 1
    20   11   12 1
    21   11   42 1
    22   11   43 1
    23   12   13 1
    24   12   14 1
    25   12   21 1
    26   14   44 1
    27   14   45 1
    28   14   15 1
    29   15   16 1
    30   15   19 2
    31   16   17 2
    32   16   46 1
    33   17   18 1
    34   18   20 1
    35   18   19 1
    36   21   30 am
    37   21   22 am
    38   22   23 2
    39   22   24 1
    40   24   29 ar
    41   24   25 ar
    42   25   26 ar
    43   25   47 1
    44   26   27 ar
    45   26   48 1
    46   27   28 ar
    47   27   32 1
    48   28   29 ar
    49   28   49 1
    50   29   30 1
    51   30   31 2
    52   32   33 2
    53   32   34 1
##########                 Name:                  206
##########          Protonation:                 none
##########               SMILES:   c1cc(ccc1CCN2C(=O)c3ccc(cc3C2=O)C(=O)O)O
##########            Long Name:   2-[2-(4-hydroxyphenyl)ethyl]-1,3-dioxo-isoindoline-5-carboxylic
##########          FlexRecCode: 1
##########               Number:                   64
##########   Ligand Source File: ./ligands-ampc-0000001.db2.gz
##########           GlobalRank: 23
##########                 Rank:                    1
##########               Setnum:                   23
##########             Matchnum:                 4401
##########                Cloud:                    1
##########        Electrostatic:           -45.040653
##########                 Gist:             4.831937
##########        Van der Waals:           -19.201256
##########  Ligand Polar Desolv:            22.614735
########## Ligand Apolar Desolv:            -1.860469
##########      Internal Energy:             0.000000
##########      Receptor Energy: 0.0
########## Receptor Desolvation:             0.000000
########## Receptor Hydrophobic:             0.000000
##########         Total Energy: -38.66
##########        Ligand Charge:            -1.000000
##########            Arbitrary:    +999.9990
##########     heavy atom count:   23
##########           pose count:    1
##########        Ligand Energy:             0.000000

@<TRIPOS>MOLECULE
              206      none
   35    37     0     0     0



@<TRIPOS>ATOM
      1 C1         45.6619    42.6283    44.8671 C.ar       1  LIG1  -0.0950
      2 C2         45.9725    43.0922    46.1307 C.ar       1  LIG1  -0.1430
      3 C3         46.9068    44.1071    46.2856 C.ar       1  LIG1   0.0997
      4 C4         47.5276    44.6506    45.1713 C.ar       1  LIG1  -0.1436
      5 C5         47.2136    44.1832    43.9098 C.ar       1  LIG1  -0.0956
      6 C6         46.2817    43.1730    43.7577 C.ar       1  LIG1  -0.0875
      7 C7         45.9413    42.6647    42.3805 C.3        1  LIG1  -0.0981
      8 C8         46.1105    43.7951    41.3633 C.3        1  LIG1   0.1185
      9 N1         45.7796    43.3009    40.0245 N.am       1  LIG1  -0.5806
     10 C9         46.6659    42.7487    39.1768 C.2        1  LIG1   0.5819
     11 O1         47.8485    42.5832    39.3961 O.2        1  LIG1  -0.4758
     12 C10        45.9570    42.3764    37.9308 C.ar       1  LIG1  -0.1597
     13 C11        46.3469    41.7873    36.7388 C.ar       1  LIG1  -0.0548
     14 C12        45.4144    41.5685    35.7390 C.ar       1  LIG1  -0.0652
     15 C13        44.0817    41.9392    35.9260 C.ar       1  LIG1  -0.1067
     16 C14        43.6805    42.5342    37.1264 C.ar       1  LIG1  -0.0053
     17 C15        44.6124    42.7528    38.1265 C.ar       1  LIG1  -0.1647
     18 C16        44.5484    43.3347    39.4840 C.2        1  LIG1   0.5802
     19 O2         43.5509    43.7729    40.0206 O.2        1  LIG1  -0.4682
     20 C17        43.0932    41.7029    34.8536 C.2        1  LIG1   0.5199
     21 O3         43.4428    41.1833    33.8036 O.co2      1  LIG1  -0.6750
     22 O4         41.9256    42.0271    35.0162 O.co2      1  LIG1  -0.6738
     23 O5         47.2138    44.5656    47.5275 O.3        1  LIG1  -0.5007
     24 H1         44.9376    41.8363    44.7461 H          1  LIG1   0.1303
     25 H2         45.4878    42.6666    46.9970 H          1  LIG1   0.1290
     26 H3         48.2552    45.4398    45.2895 H          1  LIG1   0.1286
     27 H4         47.6963    44.6070    43.0417 H          1  LIG1   0.1296
     28 H5         46.6069    41.8411    42.1224 H          1  LIG1   0.0817
     29 H6         44.9089    42.3154    42.3671 H          1  LIG1   0.0825
     30 H7         45.4449    44.6188    41.6215 H          1  LIG1   0.0968
     31 H8         47.1429    44.1445    41.3768 H          1  LIG1   0.0962
     32 H9         47.3772    41.4995    36.5895 H          1  LIG1   0.1356
     33 H10        45.7195    41.1093    34.8104 H          1  LIG1   0.1474
     34 H11        42.6497    42.8218    37.2722 H          1  LIG1   0.1460
     35 H12        46.7309    44.1236    48.2405 H          1  LIG1   0.3893
@<TRIPOS>BOND
     1    1    6 ar
     2    1    2 ar
     3    1   24 1
     4    2    3 ar
     5    2   25 1
     6    3    4 ar
     7    3   23 1
     8    4    5 ar
     9    4   26 1
    10    5    6 ar
    11    5   27 1
    12    6    7 1
    13    7    8 1
    14    7   28 1
    15    7   29 1
    16    8    9 1
    17    8   30 1
    18    8   31 1
    19    9   18 am
    20    9   10 am
    21   10   11 2
    22   10   12 1
    23   12   17 ar
    24   12   13 ar
    25   13   14 ar
    26   13   32 1
    27   14   15 ar
    28   14   33 1
    29   15   16 ar
    30   15   20 1
    31   16   17 ar
    32   16   34 1
    33   17   18 1
    34   18   19 2
    35   20   21 2
    36   20   22 1
    37   23   35 1
##########                 Name:                  319
##########          Protonation:                 none
##########               SMILES:   Cc1nc2ccc(cc2s1)P(=O)(O)O
##########            Long Name:   (2-methyl-1,3-benzothiazol-6-yl)phosphonic
##########          FlexRecCode: 1
##########               Number:                  114
##########   Ligand Source File: ./ligands-ampc-0000001.db2.gz
##########           GlobalRank: 24
##########                 Rank:                    1
##########               Setnum:                    2
##########             Matchnum:                 4992
##########                Cloud:                    1
##########        Electrostatic:           -49.357567
##########                 Gist:             1.840886
##########        Van der Waals:           -15.274980
##########  Ligand Polar Desolv:            24.123602
########## Ligand Apolar Desolv:             0.088333
##########      Internal Energy:             0.000000
##########      Receptor Energy: 0.0
########## Receptor Desolvation:             0.000000
########## Receptor Hydrophobic:             0.000000
##########         Total Energy: -38.58
##########        Ligand Charge:            -1.000000
##########            Arbitrary:    +999.9990
##########     heavy atom count:   14
##########           pose count:    1
##########        Ligand Energy:             0.000000

@<TRIPOS>MOLECULE
              319      none
   21    22     0     0     0



@<TRIPOS>ATOM
      1 C1         46.6452    45.2804    38.6750 C.3        1  LIG1  -0.0644
      2 C2         45.9119    44.5120    37.6059 C.2        1  LIG1   0.0881
      3 N1         44.8472    44.8742    36.9516 N.2        1  LIG1  -0.5154
      4 C3         44.2812    44.0914    36.0101 C.ar       1  LIG1   0.0825
      5 C4         43.1409    44.3171    35.2111 C.ar       1  LIG1  -0.0852
      6 C5         42.7323    43.3837    34.3085 C.ar       1  LIG1  -0.0706
      7 C6         43.4143    42.1864    34.1412 C.ar       1  LIG1  -0.6368
      8 C7         44.5368    41.9293    34.9058 C.ar       1  LIG1   0.0077
      9 C8         44.9574    42.8650    35.8194 C.ar       1  LIG1  -0.1746
     10 S1         46.2894    42.9945    36.9835 S.3        1  LIG1   0.0708
     11 P1         42.8366    40.9676    32.9282 P.3        1  LIG1   2.2978
     12 O1         43.2063    39.5467    33.4095 O.2        1  LIG1  -1.0915
     13 O2         41.3029    41.0776    32.7780 O.3        1  LIG1  -1.0919
     14 O3         43.5368    41.2517    31.5066 O.3        1  LIG1  -0.9047
     15 H1         46.1424    46.2319    38.8482 H          1  LIG1   0.0902
     16 H2         46.6536    44.7007    39.5980 H          1  LIG1   0.0909
     17 H3         47.6699    45.4644    38.3521 H          1  LIG1   0.0872
     18 H4         42.5870    45.2383    35.3165 H          1  LIG1   0.1280
     19 H5         41.8559    43.5791    33.7084 H          1  LIG1   0.1370
     20 H6         45.0777    41.0022    34.7862 H          1  LIG1   0.1393
     21 H7         43.2737    40.6365    30.8085 H          1  LIG1   0.4157
@<TRIPOS>BOND
     1    1    2 1
     2    1   15 1
     3    1   16 1
     4    1   17 1
     5    2   10 1
     6    2    3 2
     7    3    4 1
     8    4    9 ar
     9    4    5 ar
    10    5    6 ar
    11    5   18 1
    12    6    7 ar
    13    6   19 1
    14    7    8 ar
    15    7   11 1
    16    8    9 ar
    17    8   20 1
    18    9   10 1
    19   11   12 2
    20   11   13 1
    21   11   14 1
    22   14   21 1
##########                 Name:                  322
##########          Protonation:                 none
##########               SMILES:   CC(=O)Nc1c(ccs1)C(=O)O
##########            Long Name:   2-acetamidothiophene-3-carboxylic
##########          FlexRecCode: 1
##########               Number:                   55
##########   Ligand Source File: ./ligands-ampc-0000001.db2.gz
##########           GlobalRank: 25
##########                 Rank:                    1
##########               Setnum:                    1
##########             Matchnum:                 2380
##########                Cloud:                    1
##########        Electrostatic:           -53.747932
##########                 Gist:             4.096039
##########        Van der Waals:           -13.554734
##########  Ligand Polar Desolv:            26.301886
########## Ligand Apolar Desolv:            -1.502571
##########      Internal Energy:             0.000000
##########      Receptor Energy: 0.0
########## Receptor Desolvation:             0.000000
########## Receptor Hydrophobic:             0.000000
##########         Total Energy: -38.41
##########        Ligand Charge:            -1.000000
##########            Arbitrary:    +999.9990
##########     heavy atom count:   12
##########           pose count:    1
##########        Ligand Energy:             0.000000

@<TRIPOS>MOLECULE
              322      none
   18    18     0     0     0



@<TRIPOS>ATOM
      1 C1         45.0228    41.3355    39.4908 C.3        1  LIG1  -0.1640
      2 C2         44.2833    42.2316    38.5309 C.2        1  LIG1   0.4930
      3 O1         44.1312    43.4060    38.7926 O.2        1  LIG1  -0.5304
      4 N1         43.7912    41.7280    37.3818 N.am       1  LIG1  -0.5990
      5 C3         43.1117    42.5514    36.4999 C.2        1  LIG1   0.0443
      6 C4         42.5350    42.2089    35.2818 C.2        1  LIG1  -0.2441
      7 C5         41.8803    43.2754    34.5565 C.2        1  LIG1  -0.0774
      8 C6         41.9028    44.4847    35.1443 C.2        1  LIG1  -0.2833
      9 S1         42.7885    44.1900    36.6589 S.3        1  LIG1   0.1961
     10 C7         42.5864    40.8847    34.7774 C.2        1  LIG1   0.5382
     11 O2         43.1498    40.0063    35.4187 O.co2      1  LIG1  -0.6911
     12 O3         42.0671    40.6192    33.7001 O.co2      1  LIG1  -0.7073
     13 H1         45.0589    40.3232    39.0883 H          1  LIG1   0.0966
     14 H2         46.0379    41.7084    39.6274 H          1  LIG1   0.0854
     15 H3         44.5066    41.3267    40.4507 H          1  LIG1   0.0958
     16 H4         43.9130    40.7887    37.1725 H          1  LIG1   0.4349
     17 H5         41.4032    43.1108    33.6017 H          1  LIG1   0.1379
     18 H6         41.4808    45.4116    34.7849 H          1  LIG1   0.1744
@<TRIPOS>BOND
     1    1    2 1
     2    1   13 1
     3    1   14 1
     4    1   15 1
     5    2    3 2
     6    2    4 am
     7    4    5 1
     8    4   16 1
     9    5    9 1
    10    5    6 2
    11    6    7 1
    12    6   10 1
    13    7    8 2
    14    7   17 1
    15    8    9 1
    16    8   18 1
    17   10   11 2
    18   10   12 1
##########                 Name:                  317
##########          Protonation:                 none
##########               SMILES:   c1cc(ccc1c2c(c(on2)N)C(=O)O)Cl
##########            Long Name:   5-amino-3-(4-chlorophenyl)isoxazole-4-carboxylic
##########          FlexRecCode: 1
##########               Number:                   88
##########   Ligand Source File: ./ligands-ampc-0000001.db2.gz
##########           GlobalRank: 26
##########                 Rank:                    1
##########               Setnum:                    4
##########             Matchnum:                 6017
##########                Cloud:                    1
##########        Electrostatic:           -49.649727
##########                 Gist:             4.334861
##########        Van der Waals:           -12.954638
##########  Ligand Polar Desolv:            21.635151
########## Ligand Apolar Desolv:            -1.442189
##########      Internal Energy:             0.000000
##########      Receptor Energy: 0.0
########## Receptor Desolvation:             0.000000
########## Receptor Hydrophobic:             0.000000
##########         Total Energy: -38.08
##########        Ligand Charge:            -1.000000
##########            Arbitrary:    +999.9990
##########     heavy atom count:   16
##########           pose count:    1
##########        Ligand Energy:             0.000000

@<TRIPOS>MOLECULE
              317      none
   22    23     0     0     0



@<TRIPOS>ATOM
      1 C1         46.0598    41.6511    38.2512 C.ar       1  LIG1  -0.0806
      2 C2         46.0499    40.9965    39.4657 C.ar       1  LIG1  -0.1284
      3 C3         44.8476    40.6478    40.0570 C.ar       1  LIG1  -0.0232
      4 C4         43.6497    40.9540    39.4338 C.ar       1  LIG1  -0.1210
      5 C5         43.6488    41.6083    38.2191 C.ar       1  LIG1  -0.0101
      6 C6         44.8566    41.9616    37.6196 C.ar       1  LIG1  -0.0105
      7 C7         44.8615    42.6654    36.3143 C.2        1  LIG1   0.1944
      8 C8         43.8492    42.5463    35.2533 C.2        1  LIG1  -0.3687
      9 C9         44.2647    43.3837    34.2196 C.2        1  LIG1   0.3646
     10 O1         45.4121    43.9606    34.5989 O.3        1  LIG1  -0.1286
     11 N1         45.7634    43.5132    35.8918 N.2        1  LIG1  -0.3431
     12 N2         43.6165    43.5807    33.0301 N.pl3      1  LIG1  -0.7956
     13 C10        42.6841    41.7401    35.2774 C.2        1  LIG1   0.5538
     14 O2         41.6349    42.1930    35.7185 O.co2      1  LIG1  -0.6867
     15 O3         42.7263    40.5903    34.8570 O.co2      1  LIG1  -0.7098
     16 Cl1        44.8419    39.8234    41.5848 Cl         1  LIG1  -0.0849
     17 H1         46.9982    41.9264    37.7927 H          1  LIG1   0.1303
     18 H2         46.9816    40.7556    39.9558 H          1  LIG1   0.1315
     19 H3         42.7144    40.6798    39.8991 H          1  LIG1   0.1340
     20 H4         42.7139    41.8461    37.7334 H          1  LIG1   0.1453
     21 H5         42.7861    43.1138    32.8471 H          1  LIG1   0.4398
     22 H6         43.9874    44.1872    32.3702 H          1  LIG1   0.3975
@<TRIPOS>BOND
     1    1    6 ar
     2    1    2 ar
     3    1   17 1
     4    2    3 ar
     5    2   18 1
     6    3    4 ar
     7    3   16 1
     8    4    5 ar
     9    4   19 1
    10    5    6 ar
    11    5   20 1
    12    6    7 1
    13    7   11 2
    14    7    8 1
    15    8    9 2
    16    8   13 1
    17    9   10 1
    18    9   12 1
    19   10   11 1
    20   12   21 1
    21   12   22 1
    22   13   14 2
    23   13   15 1
##########                 Name:                  306
##########          Protonation:                 none
##########               SMILES:   c1ccc(c(c1)C(=O)O)S(=O)(=O)N
##########            Long Name:   2-sulfamoylbenzoic
##########          FlexRecCode: 1
##########               Number:                   27
##########   Ligand Source File: ./ligands-ampc-0000001.db2.gz
##########           GlobalRank: 27
##########                 Rank:                    1
##########               Setnum:                    2
##########             Matchnum:                 4685
##########                Cloud:                    1
##########        Electrostatic:           -60.032143
##########                 Gist:             5.729396
##########        Van der Waals:           -10.088715
##########  Ligand Polar Desolv:            25.857002
########## Ligand Apolar Desolv:             0.800990
##########      Internal Energy:             0.000000
##########      Receptor Energy: 0.0
########## Receptor Desolvation:             0.000000
########## Receptor Hydrophobic:             0.000000
##########         Total Energy: -37.73
##########        Ligand Charge:            -1.000000
##########            Arbitrary:    +999.9990
##########     heavy atom count:   13
##########           pose count:    1
##########        Ligand Energy:             0.000000

@<TRIPOS>MOLECULE
              306      none
   19    19     0     0     0



@<TRIPOS>ATOM
      1 C1         46.4635    42.7172    35.9487 C.ar       1  LIG1  -0.0853
      2 C2         46.3091    43.2456    37.2185 C.ar       1  LIG1  -0.1539
      3 C3         45.1346    43.0432    37.9213 C.ar       1  LIG1  -0.0440
      4 C4         44.1085    42.3118    37.3601 C.ar       1  LIG1  -0.6519
      5 C5         44.2572    41.7753    36.0788 C.ar       1  LIG1  -0.0359
      6 C6         45.4461    41.9843    35.3748 C.ar       1  LIG1  -0.1118
      7 C7         43.1642    40.9919    35.4717 C.2        1  LIG1   0.4998
      8 O1         42.3083    41.5531    34.8025 O.co2      1  LIG1  -0.6733
      9 O2         43.1143    39.7814    35.6378 O.co2      1  LIG1  -0.6342
     10 S1         42.6141    42.0542    38.2573 S.o2       1  LIG1   2.7217
     11 O3         42.5185    43.1133    39.1998 O.2        1  LIG1  -0.9314
     12 O4         41.6012    41.7978    37.2942 O.2        1  LIG1  -1.0076
     13 N1         42.8011    40.6594    39.1300 N.pl3      1  LIG1  -1.2263
     14 H1         47.3813    42.8830    35.4041 H          1  LIG1   0.1220
     15 H2         47.1094    43.8185    37.6631 H          1  LIG1   0.1225
     16 H3         45.0210    43.4585    38.9118 H          1  LIG1   0.1361
     17 H4         45.5678    41.5727    34.3837 H          1  LIG1   0.1350
     18 H5         43.1652    40.6945    40.0284 H          1  LIG1   0.4155
     19 H6         42.5465    39.8072    38.7429 H          1  LIG1   0.4029
@<TRIPOS>BOND
     1    1    6 ar
     2    1    2 ar
     3    1   14 1
     4    2    3 ar
     5    2   15 1
     6    3    4 ar
     7    3   16 1
     8    4    5 ar
     9    4   10 1
    10    5    6 ar
    11    5    7 1
    12    6   17 1
    13    7    8 2
    14    7    9 1
    15   10   11 2
    16   10   12 2
    17   10   13 1
    18   13   18 1
    19   13   19 1
##########                 Name:                  203
##########          Protonation:                 none
##########               SMILES:   c1cc(ccc1C[C@H](C(=O)O)N2C(=O)c3ccc(cc3C2=O)C(=O)O)O
##########            Long Name:   -1-[(4-hydroxyphenyl)methyl]-2-oxo-ethyl]-1,3-dioxo-isoindoline-5-carboxylic
##########          FlexRecCode: 1
##########               Number:                   87
##########   Ligand Source File: ./ligands-ampc-0000001.db2.gz
##########           GlobalRank: 28
##########                 Rank:                    1
##########               Setnum:                   28
##########             Matchnum:                 5176
##########                Cloud:                    1
##########        Electrostatic:           -55.747757
##########                 Gist:             2.634770
##########        Van der Waals:           -18.030279
##########  Ligand Polar Desolv:            35.879513
########## Ligand Apolar Desolv:            -2.409930
##########      Internal Energy:             0.000000
##########      Receptor Energy: 0.0
########## Receptor Desolvation:             0.000000
########## Receptor Hydrophobic:             0.000000
##########         Total Energy: -37.67
##########        Ligand Charge:            -2.000000
##########            Arbitrary:    +999.9990
##########     heavy atom count:   26
##########           pose count:    1
##########        Ligand Energy:             0.000000

@<TRIPOS>MOLECULE
              203      none
   37    39     0     0     0



@<TRIPOS>ATOM
      1 C1         48.6852    43.1866    35.6033 C.ar       1  LIG1  -0.0998
      2 C2         49.0603    43.7043    34.3786 C.ar       1  LIG1  -0.1424
      3 C3         49.9943    44.7282    34.3164 C.ar       1  LIG1   0.0871
      4 C4         50.5493    45.2296    35.4848 C.ar       1  LIG1  -0.1379
      5 C5         50.1710    44.7085    36.7069 C.ar       1  LIG1  -0.0982
      6 C6         49.2399    43.6880    36.7663 C.ar       1  LIG1  -0.0745
      7 C7         48.8287    43.1217    38.1009 C.3        1  LIG1  -0.0810
      8 C8         47.6281    43.9032    38.6384 C.3        1  LIG1   0.0791
      9 H1         47.9010    44.9518    38.7572 H          1  LIG1   0.0979
     10 C9         47.2167    43.3368    39.9729 C.2        1  LIG1   0.4965
     11 O1         47.2287    44.0448    40.9655 O.co2      1  LIG1  -0.6932
     12 O2         46.8718    42.1706    40.0600 O.co2      1  LIG1  -0.6642
     13 N1         46.5119    43.7926    37.6960 N.am       1  LIG1  -0.5452
     14 C10        45.9278    44.8375    37.0825 C.2        1  LIG1   0.5838
     15 O3         46.2369    46.0036    37.2196 O.2        1  LIG1  -0.4546
     16 C11        44.8443    44.3265    36.2115 C.ar       1  LIG1  -0.1417
     17 C12        43.9269    44.9246    35.3623 C.ar       1  LIG1  -0.0678
     18 C13        43.0167    44.1446    34.6695 C.ar       1  LIG1  -0.0693
     19 C14        43.0181    42.7572    34.8227 C.ar       1  LIG1  -0.1215
     20 C15        43.9409    42.1464    35.6780 C.ar       1  LIG1  -0.0114
     21 C16        44.8515    42.9258    36.3705 C.ar       1  LIG1  -0.1588
     22 C17        45.9405    42.6325    37.3263 C.2        1  LIG1   0.5756
     23 O4         46.2636    41.5282    37.7151 O.2        1  LIG1  -0.4878
     24 C18        42.0426    41.9323    34.0802 C.2        1  LIG1   0.5252
     25 O5         41.2351    42.4652    33.3326 O.co2      1  LIG1  -0.6848
     26 O6         42.0428    40.7171    34.2136 O.co2      1  LIG1  -0.6803
     27 O7         50.3652    45.2389    33.1128 O.3        1  LIG1  -0.4987
     28 H2         47.9548    42.3925    35.6524 H          1  LIG1   0.1279
     29 H3         48.6270    43.3119    33.4704 H          1  LIG1   0.1237
     30 H4         51.2770    46.0264    35.4389 H          1  LIG1   0.1255
     31 H5         50.6027    45.0984    37.6168 H          1  LIG1   0.1202
     32 H6         48.5559    42.0730    37.9821 H          1  LIG1   0.0849
     33 H7         49.6592    43.2038    38.8020 H          1  LIG1   0.0930
     34 H8         43.9218    45.9978    35.2413 H          1  LIG1   0.1315
     35 H9         42.3022    44.6118    34.0079 H          1  LIG1   0.1406
     36 H10        43.9428    41.0730    35.7977 H          1  LIG1   0.1402
     37 H11        51.0202    45.9477    33.1712 H          1  LIG1   0.3804
@<TRIPOS>BOND
     1    1    6 ar
     2    1    2 ar
     3    1   28 1
     4    2    3 ar
     5    2   29 1
     6    3    4 ar
     7    3   27 1
     8    4    5 ar
     9    4   30 1
    10    5    6 ar
    11    5   31 1
    12    6    7 1
    13    7    8 1
    14    7   32 1
    15    7   33 1
    16    8    9 1
    17    8   10 1
    18    8   13 1
    19   10   11 2
    20   10   12 1
    21   13   22 am
    22   13   14 am
    23   14   15 2
    24   14   16 1
    25   16   21 ar
    26   16   17 ar
    27   17   18 ar
    28   17   34 1
    29   18   19 ar
    30   18   35 1
    31   19   20 ar
    32   19   24 1
    33   20   21 ar
    34   20   36 1
    35   21   22 1
    36   22   23 2
    37   24   25 2
    38   24   26 1
    39   27   37 1
##########                 Name:                  313
##########          Protonation:                 none
##########               SMILES:   C[P@@](=O)(CC(=O)O)O
##########            Long Name:   2-[hydroxy(methyl)phosphoryl]acetic
##########          FlexRecCode: 1
##########               Number:                   56
##########   Ligand Source File: ./ligands-ampc-0000001.db2.gz
##########           GlobalRank: 29
##########                 Rank:                    1
##########               Setnum:                    4
##########             Matchnum:                  623
##########                Cloud:                    1
##########        Electrostatic:           -89.202377
##########                 Gist:             4.069191
##########        Van der Waals:            -4.228814
##########  Ligand Polar Desolv:            52.314167
########## Ligand Apolar Desolv:            -0.445388
##########      Internal Energy:             0.000000
##########      Receptor Energy: 0.0
########## Receptor Desolvation:             0.000000
########## Receptor Hydrophobic:             0.000000
##########         Total Energy: -37.49
##########        Ligand Charge:            -2.000000
##########            Arbitrary:    +999.9990
##########     heavy atom count:    8
##########           pose count:    1
##########        Ligand Energy:             0.000000

@<TRIPOS>MOLECULE
              313      none
   13    12     0     0     0



@<TRIPOS>ATOM
      1 C1         42.4570    44.2346    36.4076 C.3        1  LIG1  -0.7851
      2 P1         43.3184    42.7717    37.0720 P.3        1  LIG1   2.3434
      3 O1         42.3353    41.9378    37.9235 O.2        1  LIG1  -1.0866
      4 C2         43.9413    41.7550    35.6930 C.3        1  LIG1  -0.7958
      5 C3         42.8167    40.9209    35.1358 C.2        1  LIG1   0.5226
      6 O2         42.8982    39.7045    35.1431 O.co2      1  LIG1  -0.7047
      7 O3         41.8250    41.4626    34.6779 O.co2      1  LIG1  -0.7063
      8 O4         44.5035    43.2275    37.9521 O.3        1  LIG1  -1.0892
      9 H1         43.1505    44.8229    35.8069 H          1  LIG1   0.0754
     10 H2         41.6208    43.9131    35.7867 H          1  LIG1   0.0568
     11 H3         42.0845    44.8425    37.2321 H          1  LIG1   0.0574
     12 H4         44.3338    42.4049    34.9108 H          1  LIG1   0.0547
     13 H5         44.7348    41.1006    36.0536 H          1  LIG1   0.0575
@<TRIPOS>BOND
     1    1    2 1
     2    1    9 1
     3    1   10 1
     4    1   11 1
     5    2    3 2
     6    2    4 1
     7    2    8 1
     8    4    5 1
     9    4   12 1
    10    4   13 1
    11    5    6 2
    12    5    7 1
##########                 Name:                  213
##########          Protonation:                 none
##########               SMILES:   CC(C)C[C@H](C(=O)O)N1C(=O)c2ccc(cc2C1=O)C(=O)O
##########            Long Name:   2-[(1R)-1-carboxy-3-methyl-butyl]-1,3-dioxo-isoindoline-5-carboxylic
##########          FlexRecCode: 1
##########               Number:                   18
##########   Ligand Source File: ./ligands-ampc-0000001.db2.gz
##########           GlobalRank: 30
##########                 Rank:                    1
##########               Setnum:                    1
##########             Matchnum:                 5177
##########                Cloud:                    1
##########        Electrostatic:           -52.631012
##########                 Gist:             2.138824
##########        Van der Waals:           -15.699392
##########  Ligand Polar Desolv:            31.169001
########## Ligand Apolar Desolv:            -2.365530
##########      Internal Energy:             0.000000
##########      Receptor Energy: 0.0
########## Receptor Desolvation:             0.000000
########## Receptor Hydrophobic:             0.000000
##########         Total Energy: -37.39
##########        Ligand Charge:            -2.000000
##########            Arbitrary:    +999.9990
##########     heavy atom count:   22
##########           pose count:    1
##########        Ligand Energy:             0.000000

@<TRIPOS>MOLECULE
              213      none
   35    36     0     0     0



@<TRIPOS>ATOM
      1 C1         46.3991    42.7165    41.0219 C.3        1  LIG1  -0.1460
      2 C2         46.0072    44.1117    40.5309 C.3        1  LIG1  -0.1000
      3 C3         45.5837    44.9717    41.7233 C.3        1  LIG1  -0.1394
      4 C4         47.2036    44.7613    39.8328 C.3        1  LIG1  -0.1096
      5 C5         47.6271    43.9012    38.6403 C.3        1  LIG1   0.0714
      6 C6         48.8056    44.5412    37.9528 C.2        1  LIG1   0.4908
      7 O1         48.9691    44.3883    36.7542 O.co2      1  LIG1  -0.6971
      8 O2         49.5956    45.2121    38.5951 O.co2      1  LIG1  -0.6630
      9 N1         46.5118    43.7915    37.6969 N.am       1  LIG1  -0.5483
     10 C7         45.9297    44.8366    37.0819 C.2        1  LIG1   0.5755
     11 O3         46.2405    46.0024    37.2184 O.2        1  LIG1  -0.4370
     12 C8         44.8463    44.3266    36.2103 C.ar       1  LIG1  -0.1397
     13 C9         43.9307    44.9253    35.3596 C.ar       1  LIG1  -0.0688
     14 C10        43.0200    44.1460    34.6666 C.ar       1  LIG1  -0.0686
     15 C11        43.0192    42.7587    34.8210 C.ar       1  LIG1  -0.1238
     16 C12        43.9404    42.1473    35.6778 C.ar       1  LIG1  -0.0115
     17 C13        44.8514    42.9258    36.3705 C.ar       1  LIG1  -0.1621
     18 C14        45.9391    42.6319    37.3276 C.2        1  LIG1   0.5735
     19 O4         46.2602    41.5274    37.7177 O.2        1  LIG1  -0.4908
     20 C15        42.0433    41.9346    34.0782 C.2        1  LIG1   0.5253
     21 O5         41.2375    42.4680    33.3293 O.co2      1  LIG1  -0.6848
     22 O6         42.0415    40.7194    34.2128 O.co2      1  LIG1  -0.6812
     23 H1         46.7009    42.1038    40.1724 H          1  LIG1   0.0519
     24 H2         47.2288    42.7982    41.7239 H          1  LIG1   0.0468
     25 H3         45.5467    42.2536    41.5191 H          1  LIG1   0.0625
     26 H4         45.1774    44.0299    39.8289 H          1  LIG1   0.0624
     27 H5         45.3046    45.9655    41.3734 H          1  LIG1   0.0517
     28 H6         44.7313    44.5088    42.2206 H          1  LIG1   0.0517
     29 H7         46.4135    45.0533    42.4253 H          1  LIG1   0.0483
     30 H8         46.9245    45.7552    39.4830 H          1  LIG1   0.0753
     31 H9         48.0335    44.8430    40.5348 H          1  LIG1   0.0748
     32 H10        47.9063    42.9074    38.9901 H          1  LIG1   0.0980
     33 H11        43.9272    45.9983    35.2377 H          1  LIG1   0.1314
     34 H12        42.3069    44.6136    34.0039 H          1  LIG1   0.1404
     35 H13        43.9406    41.0740    35.7983 H          1  LIG1   0.1403
@<TRIPOS>BOND
     1    1    2 1
     2    1   23 1
     3    1   24 1
     4    1   25 1
     5    2    3 1
     6    2    4 1
     7    2   26 1
     8    3   27 1
     9    3   28 1
    10    3   29 1
    11    4    5 1
    12    4   30 1
    13    4   31 1
    14    5    6 1
    15    5    9 1
    16    5   32 1
    17    6    7 2
    18    6    8 1
    19    9   18 am
    20    9   10 am
    21   10   11 2
    22   10   12 1
    23   12   17 ar
    24   12   13 ar
    25   13   14 ar
    26   13   33 1
    27   14   15 ar
    28   14   34 1
    29   15   16 ar
    30   15   20 1
    31   16   17 ar
    32   16   35 1
    33   17   18 1
    34   18   19 2
    35   20   21 2
    36   20   22 1
##########                 Name:                  120
##########          Protonation:                 none
##########               SMILES:   COC(=O)c1c(ccs1)S(=O)(=O)Nc2ccc(c(c2)Cl)Cl
##########            Long Name:   methyl
##########          FlexRecCode: 1
##########               Number:                   38
##########   Ligand Source File: ./ligands-ampc-0000001.db2.gz
##########           GlobalRank: 31
##########                 Rank:                    1
##########               Setnum:                  222
##########             Matchnum:                  511
##########                Cloud:                    1
##########        Electrostatic:           -26.917667
##########                 Gist:             4.601582
##########        Van der Waals:           -26.034081
##########  Ligand Polar Desolv:            14.018307
########## Ligand Apolar Desolv:            -3.046423
##########      Internal Energy:             0.000000
##########      Receptor Energy: 0.0
########## Receptor Desolvation:             0.000000
########## Receptor Hydrophobic:             0.000000
##########         Total Energy: -37.38
##########        Ligand Charge:            -1.000000
##########            Arbitrary:    +999.9990
##########     heavy atom count:   21
##########           pose count:    1
##########        Ligand Energy:             0.000000

@<TRIPOS>MOLECULE
              120      none
   29    30     0     0     0



@<TRIPOS>ATOM
      1 C1         42.4642    44.2948    35.9797 C.3        1  LIG1   0.0365
      2 O1         43.3577    43.8382    36.9972 O.3        1  LIG1  -0.3548
      3 C2         43.3278    42.5224    37.2930 C.2        1  LIG1   0.5221
      4 O2         42.5632    41.7835    36.7024 O.2        1  LIG1  -0.4182
      5 C3         44.2156    41.9838    38.3249 C.2        1  LIG1  -0.1339
      6 C4         45.6019    41.9995    38.3813 C.2        1  LIG1  -0.5712
      7 C5         46.1605    41.4085    39.4884 C.2        1  LIG1  -0.1118
      8 C6         45.3465    40.8639    40.4268 C.2        1  LIG1  -0.2486
      9 S1         43.7971    41.1436    39.8406 S.3        1  LIG1   0.2623
     10 S2         46.5833    42.7305    37.1135 S.o2       1  LIG1   2.6167
     11 O3         45.9668    43.9681    36.7856 O.2        1  LIG1  -0.9982
     12 O4         47.9344    42.6431    37.5445 O.2        1  LIG1  -1.0268
     13 N1         46.4503    41.7659    35.7740 N.2        1  LIG1  -1.0677
     14 C7         45.4380    42.0029    34.8400 C.ar       1  LIG1   0.3036
     15 C8         45.3715    43.2241    34.1810 C.ar       1  LIG1  -0.2525
     16 C9         44.3704    43.4563    33.2586 C.ar       1  LIG1  -0.0398
     17 C10        43.4334    42.4741    32.9903 C.ar       1  LIG1  -0.1356
     18 C11        43.4965    41.2560    33.6457 C.ar       1  LIG1   0.0245
     19 C12        44.5006    41.0162    34.5652 C.ar       1  LIG1  -0.1656
     20 Cl1        42.3184    40.0266    33.3074 Cl         1  LIG1  -0.0851
     21 Cl2        42.1760    42.7698    31.8304 Cl         1  LIG1  -0.0960
     22 H1         42.5898    45.3687    35.8409 H          1  LIG1   0.1015
     23 H2         42.6842    43.7794    35.0448 H          1  LIG1   0.0629
     24 H3         41.4368    44.0848    36.2773 H          1  LIG1   0.0652
     25 H4         47.2333    41.3774    39.6097 H          1  LIG1   0.1529
     26 H5         45.6295    40.3681    41.3435 H          1  LIG1   0.1945
     27 H6         46.1020    43.9915    34.3903 H          1  LIG1   0.1095
     28 H7         44.3186    44.4056    32.7462 H          1  LIG1   0.1225
     29 H8         44.5528    40.0644    35.0728 H          1  LIG1   0.1310
@<TRIPOS>BOND
     1    1    2 1
     2    1   22 1
     3    1   23 1
     4    1   24 1
     5    2    3 1
     6    3    4 2
     7    3    5 1
     8    5    9 1
     9    5    6 2
    10    6    7 1
    11    6   10 1
    12    7    8 2
    13    7   25 1
    14    8    9 1
    15    8   26 1
    16   10   11 2
    17   10   12 2
    18   10   13 1
    19   13   14 1
    20   14   19 ar
    21   14   15 ar
    22   15   16 ar
    23   15   27 1
    24   16   17 ar
    25   16   28 1
    26   17   18 ar
    27   17   21 1
    28   18   19 ar
    29   18   20 1
    30   19   29 1
##########                 Name:                  208
##########          Protonation:                 none
##########               SMILES:   c1ccc2c(c1)cccc2C[C@H](CC(=O)O)N3C(=O)c4ccc(cc4C3=O)C(=O)O
##########            Long Name:   ydroxy-1-(1-naphthylmethyl)-3-oxo-propyl]-1,3-dioxo-isoindoline-5-carboxylic
##########          FlexRecCode: 1
##########               Number:                   78
##########   Ligand Source File: ./ligands-ampc-0000001.db2.gz
##########           GlobalRank: 32
##########                 Rank:                    1
##########               Setnum:                   13
##########             Matchnum:                  557
##########                Cloud:                    1
##########        Electrostatic:           -46.939796
##########                 Gist:             4.679466
##########        Van der Waals:           -22.812397
##########  Ligand Polar Desolv:            30.854052
########## Ligand Apolar Desolv:            -2.942896
##########      Internal Energy:             0.000000
##########      Receptor Energy: 0.0
########## Receptor Desolvation:             0.000000
########## Receptor Hydrophobic:             0.000000
##########         Total Energy: -37.16
##########        Ligand Charge:            -2.000000
##########            Arbitrary:    +999.9990
##########     heavy atom count:   30
##########           pose count:    1
##########        Ligand Energy:             0.000000

@<TRIPOS>MOLECULE
              208      none
   45    48     0     0     0



@<TRIPOS>ATOM
      1 C1         45.4181    41.0256    41.3631 C.ar       1  LIG1  -0.1187
      2 C2         44.6082    40.8545    40.2417 C.ar       1  LIG1  -0.1251
      3 C3         45.0759    41.1222    38.9920 C.ar       1  LIG1  -0.0952
      4 C4         46.3948    41.5785    38.8261 C.ar       1  LIG1  -0.0429
      5 C5         47.2183    41.7530    39.9666 C.ar       1  LIG1  -0.0475
      6 C6         46.7001    41.4657    41.2411 C.ar       1  LIG1  -0.1109
      7 C7         48.5367    42.2097    39.8009 C.ar       1  LIG1  -0.1195
      8 C8         49.0044    42.4779    38.5511 C.ar       1  LIG1  -0.1030
      9 C9         48.1948    42.3068    37.4300 C.ar       1  LIG1  -0.1155
     10 C10        46.9128    41.8657    37.5521 C.ar       1  LIG1  -0.0559
     11 C11        46.0537    41.6863    36.3272 C.3        1  LIG1  -0.1043
     12 C12        45.3055    42.9882    36.0338 C.3        1  LIG1   0.1765
     13 H1         44.6751    43.2448    36.8853 H          1  LIG1   0.1042
     14 C13        44.4332    42.8062    34.7901 C.3        1  LIG1  -0.2040
     15 C14        43.1644    42.0855    35.1673 C.2        1  LIG1   0.4888
     16 O1         43.1200    40.8678    35.1267 O.co2      1  LIG1  -0.6777
     17 O2         42.1826    42.7203    35.5130 O.co2      1  LIG1  -0.7090
     18 N1         46.2713    44.0645    35.7995 N.am       1  LIG1  -0.5449
     19 C15        46.7785    44.3825    34.5950 C.2        1  LIG1   0.5804
     20 O3         46.5129    43.8321    33.5458 O.2        1  LIG1  -0.4923
     21 C16        47.7157    45.5171    34.7633 C.ar       1  LIG1  -0.1538
     22 C17        48.5107    46.2480    33.8949 C.ar       1  LIG1  -0.0643
     23 C18        49.2974    47.2785    34.3806 C.ar       1  LIG1  -0.0748
     24 C19        49.2942    47.5851    35.7425 C.ar       1  LIG1  -0.1152
     25 C20        48.4944    46.8518    36.6250 C.ar       1  LIG1  -0.0140
     26 C21        47.7071    45.8216    36.1399 C.ar       1  LIG1  -0.1468
     27 C22        46.7630    44.8678    36.7596 C.2        1  LIG1   0.5893
     28 O4         46.4805    44.8164    37.9397 O.2        1  LIG1  -0.4538
     29 C23        50.1376    48.6858    36.2527 C.2        1  LIG1   0.5250
     30 O5         50.8373    49.3272    35.4822 O.co2      1  LIG1  -0.6850
     31 O6         50.1356    48.9552    37.4453 O.co2      1  LIG1  -0.6787
     32 H2         45.0209    40.8099    42.3440 H          1  LIG1   0.1172
     33 H3         43.5943    40.5040    40.3663 H          1  LIG1   0.1198
     34 H4         44.4370    40.9842    38.1323 H          1  LIG1   0.1292
     35 H5         47.3158    41.5939    42.1191 H          1  LIG1   0.1218
     36 H6         49.1755    42.3476    40.6608 H          1  LIG1   0.1228
     37 H7         50.0182    42.8289    38.4264 H          1  LIG1   0.1216
     38 H8         48.5905    42.5271    36.4495 H          1  LIG1   0.1185
     39 H9         46.6840    41.4298    35.4757 H          1  LIG1   0.0901
     40 H10        45.3350    40.8855    36.5014 H          1  LIG1   0.0883
     41 H11        44.1862    43.7826    34.3735 H          1  LIG1   0.0761
     42 H12        44.9762    42.2212    34.0478 H          1  LIG1   0.0715
     43 H13        48.5168    46.0138    32.8407 H          1  LIG1   0.1302
     44 H14        49.9167    47.8475    33.7031 H          1  LIG1   0.1405
     45 H15        48.4912    47.0877    37.6790 H          1  LIG1   0.1411
@<TRIPOS>BOND
     1    1    6 ar
     2    1    2 ar
     3    1   32 1
     4    2    3 ar
     5    2   33 1
     6    3    4 ar
     7    3   34 1
     8    4   10 ar
     9    4    5 ar
    10    5    6 ar
    11    5    7 ar
    12    6   35 1
    13    7    8 ar
    14    7   36 1
    15    8    9 ar
    16    8   37 1
    17    9   10 ar
    18    9   38 1
    19   10   11 1
    20   11   12 1
    21   11   39 1
    22   11   40 1
    23   12   13 1
    24   12   14 1
    25   12   18 1
    26   14   15 1
    27   14   41 1
    28   14   42 1
    29   15   16 2
    30   15   17 1
    31   18   27 am
    32   18   19 am
    33   19   20 2
    34   19   21 1
    35   21   26 ar
    36   21   22 ar
    37   22   23 ar
    38   22   43 1
    39   23   24 ar
    40   23   44 1
    41   24   25 ar
    42   24   29 1
    43   25   26 ar
    44   25   45 1
    45   26   27 1
    46   27   28 2
    47   29   30 2
    48   29   31 1
##########                 Name:                  112
##########          Protonation:                 none
##########               SMILES:   c1cc(ccc1NS(=O)(=O)c2ccsc2C(=O)O)Br
##########            Long Name:   3-[(4-bromophenyl)sulfamoyl]thiophene-2-carboxylic
##########          FlexRecCode: 1
##########               Number:                   70
##########   Ligand Source File: ./ligands-ampc-0000001.db2.gz
##########           GlobalRank: 33
##########                 Rank:                    1
##########               Setnum:                   24
##########             Matchnum:                 2659
##########                Cloud:                    1
##########        Electrostatic:           -79.897476
##########                 Gist:             3.651136
##########        Van der Waals:           -18.295448
##########  Ligand Polar Desolv:            58.654396
########## Ligand Apolar Desolv:            -0.991279
##########      Internal Energy:             0.000000
##########      Receptor Energy: 0.0
########## Receptor Desolvation:             0.000000
########## Receptor Hydrophobic:             0.000000
##########         Total Energy: -36.88
##########        Ligand Charge:            -2.000000
##########            Arbitrary:    +999.9990
##########     heavy atom count:   19
##########           pose count:    1
##########        Ligand Energy:             0.000000

@<TRIPOS>MOLECULE
              112      none
   25    26     0     0     0



@<TRIPOS>ATOM
      1 C1         45.0466    41.1104    40.4016 C.ar       1  LIG1  -0.1835
      2 C2         46.3014    41.2676    40.9566 C.ar       1  LIG1  -0.0486
      3 C3         47.3155    41.8561    40.2219 C.ar       1  LIG1  -0.2105
      4 C4         47.0760    42.2884    38.9296 C.ar       1  LIG1  -0.0317
      5 C5         45.8231    42.1339    38.3694 C.ar       1  LIG1  -0.2677
      6 C6         44.8031    41.5434    39.1044 C.ar       1  LIG1   0.3096
      7 N1         43.5347    41.3853    38.5402 N.2        1  LIG1  -1.0526
      8 S1         42.6823    42.7118    38.0344 S.o2       1  LIG1   2.6411
      9 O1         41.5165    42.2223    37.3856 O.2        1  LIG1  -1.0570
     10 O2         42.6216    43.6017    39.1405 O.2        1  LIG1  -0.9935
     11 C7         43.6489    43.5115    36.7971 C.2        1  LIG1  -0.6606
     12 C8         44.5650    44.4863    37.1031 C.2        1  LIG1  -0.0926
     13 C9         45.2767    45.0618    36.1007 C.2        1  LIG1  -0.3104
     14 S2         44.7241    44.2969    34.7107 S.3        1  LIG1   0.1581
     15 C10        43.5366    43.1914    35.4495 C.2        1  LIG1  -0.0459
     16 C11        42.6955    42.2363    34.8249 C.2        1  LIG1   0.5271
     17 O3         41.5780    42.5612    34.4427 O.co2      1  LIG1  -0.5953
     18 O4         43.0864    41.0861    34.6673 O.co2      1  LIG1  -0.6939
     19 Br1        49.0319    42.0708    40.9858 Br         1  LIG1  -0.1222
     20 H1         44.2566    40.6472    40.9741 H          1  LIG1   0.1167
     21 H2         46.4913    40.9312    41.9651 H          1  LIG1   0.1066
     22 H3         47.8694    42.7474    38.3584 H          1  LIG1   0.1038
     23 H4         45.6365    42.4721    37.3608 H          1  LIG1   0.1010
     24 H5         44.7173    44.7919    38.1277 H          1  LIG1   0.1300
     25 H6         46.0266    45.8350    36.1787 H          1  LIG1   0.1720
@<TRIPOS>BOND
     1    1    6 ar
     2    1    2 ar
     3    1   20 1
     4    2    3 ar
     5    2   21 1
     6    3    4 ar
     7    3   19 1
     8    4    5 ar
     9    4   22 1
    10    5    6 ar
    11    5   23 1
    12    6    7 1
    13    7    8 1
    14    8    9 2
    15    8   10 2
    16    8   11 1
    17   11   15 2
    18   11   12 1
    19   12   13 2
    20   12   24 1
    21   13   14 1
    22   13   25 1
    23   14   15 1
    24   15   16 1
    25   16   17 2
    26   16   18 1
##########                 Name:                  201
##########          Protonation:                 none
##########               SMILES:   c1cc(ccc1C[C@@H](C(=O)O)N2C(=O)c3ccc(cc3C2=O)C(=O)O)O
##########            Long Name:   -1-[(4-hydroxyphenyl)methyl]-2-oxo-ethyl]-1,3-dioxo-isoindoline-5-carboxylic
##########          FlexRecCode: 1
##########               Number:                   13
##########   Ligand Source File: ./ligands-ampc-0000001.db2.gz
##########           GlobalRank: 34
##########                 Rank:                    1
##########               Setnum:                   24
##########             Matchnum:                 5175
##########                Cloud:                    1
##########        Electrostatic:           -56.963394
##########                 Gist:             2.124922
##########        Van der Waals:           -18.199862
##########  Ligand Polar Desolv:            38.784317
########## Ligand Apolar Desolv:            -2.405890
##########      Internal Energy:             0.000000
##########      Receptor Energy: 0.0
########## Receptor Desolvation:             0.000000
########## Receptor Hydrophobic:             0.000000
##########         Total Energy: -36.66
##########        Ligand Charge:            -2.000000
##########            Arbitrary:    +999.9990
##########     heavy atom count:   26
##########           pose count:    1
##########        Ligand Energy:             0.000000

@<TRIPOS>MOLECULE
              201      none
   37    39     0     0     0



@<TRIPOS>ATOM
      1 C1         49.2758    43.1796    41.3965 C.ar       1  LIG1  -0.0984
      2 C2         50.1124    43.6673    42.3819 C.ar       1  LIG1  -0.1379
      3 C3         49.7906    44.8431    43.0440 C.ar       1  LIG1   0.0871
      4 C4         48.6291    45.5264    42.7145 C.ar       1  LIG1  -0.1424
      5 C5         47.7958    45.0346    41.7285 C.ar       1  LIG1  -0.0998
      6 C6         48.1187    43.8624    41.0702 C.ar       1  LIG1  -0.0745
      7 C7         47.2081    43.3284    39.9946 C.3        1  LIG1  -0.0815
      8 C8         47.6264    43.9040    38.6401 C.3        1  LIG1   0.0791
      9 C9         48.8097    43.1351    38.1114 C.2        1  LIG1   0.4968
     10 O1         49.6039    42.6298    38.8863 O.co2      1  LIG1  -0.6644
     11 O2         48.9730    43.0185    36.9089 O.co2      1  LIG1  -0.6931
     12 N1         46.5110    43.7930    37.6969 N.am       1  LIG1  -0.5449
     13 C10        45.9267    44.8378    37.0834 C.2        1  LIG1   0.5842
     14 O3         46.2351    46.0040    37.2210 O.2        1  LIG1  -0.4556
     15 C11        44.8438    44.3266    36.2117 C.ar       1  LIG1  -0.1418
     16 C12        43.9267    44.9244    35.3621 C.ar       1  LIG1  -0.0677
     17 C13        43.0172    44.1441    34.6686 C.ar       1  LIG1  -0.0693
     18 C14        43.0191    42.7567    34.8215 C.ar       1  LIG1  -0.1214
     19 C15        43.9418    42.1460    35.6772 C.ar       1  LIG1  -0.0114
     20 C16        44.8517    42.9257    36.3705 C.ar       1  LIG1  -0.1587
     21 C17        45.9404    42.6327    37.3267 C.2        1  LIG1   0.5756
     22 O4         46.2637    41.5285    37.7154 O.2        1  LIG1  -0.4876
     23 C18        42.0445    41.9315    34.0783 C.2        1  LIG1   0.5252
     24 O5         41.2372    42.4641    33.3303 O.co2      1  LIG1  -0.6848
     25 O6         42.0451    40.7162    34.2113 O.co2      1  LIG1  -0.6803
     26 O7         50.6117    45.3247    44.0139 O.3        1  LIG1  -0.4987
     27 H1         49.5281    42.2665    40.8777 H          1  LIG1   0.1202
     28 H2         51.0158    43.1333    42.6367 H          1  LIG1   0.1255
     29 H3         48.3762    46.4418    43.2288 H          1  LIG1   0.1237
     30 H4         46.8914    45.5661    41.4718 H          1  LIG1   0.1279
     31 H5         47.2795    42.2411    39.9650 H          1  LIG1   0.0930
     32 H6         46.1802    43.6193    40.2112 H          1  LIG1   0.0854
     33 H7         47.8984    44.9528    38.7595 H          1  LIG1   0.0979
     34 H8         43.9211    45.9976    35.2413 H          1  LIG1   0.1315
     35 H9         42.3029    44.6111    34.0068 H          1  LIG1   0.1406
     36 H10        43.9441    41.0727    35.7966 H          1  LIG1   0.1402
     37 H11        50.3037    46.1481    44.4169 H          1  LIG1   0.3804
@<TRIPOS>BOND
     1    1    6 ar
     2    1    2 ar
     3    1   27 1
     4    2    3 ar
     5    2   28 1
     6    3    4 ar
     7    3   26 1
     8    4    5 ar
     9    4   29 1
    10    5    6 ar
    11    5   30 1
    12    6    7 1
    13    7    8 1
    14    7   31 1
    15    7   32 1
    16    8    9 1
    17    8   12 1
    18    8   33 1
    19    9   10 2
    20    9   11 1
    21   12   21 am
    22   12   13 am
    23   13   14 2
    24   13   15 1
    25   15   20 ar
    26   15   16 ar
    27   16   17 ar
    28   16   34 1
    29   17   18 ar
    30   17   35 1
    31   18   19 ar
    32   18   23 1
    33   19   20 ar
    34   19   36 1
    35   20   21 1
    36   21   22 2
    37   23   24 2
    38   23   25 1
    39   26   37 1
##########                 Name:                  107
##########          Protonation:                 none
##########               SMILES:   Cc1ccc(cc1)S(=O)(=O)Nc2cc(c(s2)C)C(=O)O
##########            Long Name:   2-methyl-5-(p-tolylsulfonylamino)thiophene-3-carboxylic
##########          FlexRecCode: 1
##########               Number:                  103
##########   Ligand Source File: ./ligands-ampc-0000001.db2.gz
##########           GlobalRank: 35
##########                 Rank:                    1
##########               Setnum:                   21
##########             Matchnum:                 4187
##########                Cloud:                    1
##########        Electrostatic:           -74.309418
##########                 Gist:             4.101334
##########        Van der Waals:           -12.548916
##########  Ligand Polar Desolv:            47.938560
########## Ligand Apolar Desolv:            -1.768826
##########      Internal Energy:             0.000000
##########      Receptor Energy: 0.0
########## Receptor Desolvation:             0.000000
########## Receptor Hydrophobic:             0.000000
##########         Total Energy: -36.59
##########        Ligand Charge:            -2.000000
##########            Arbitrary:    +999.9990
##########     heavy atom count:   20
##########           pose count:    1
##########        Ligand Energy:             0.000000

@<TRIPOS>MOLECULE
              107      none
   31    32     0     0     0



@<TRIPOS>ATOM
      1 C1         50.3119    44.0466    32.2239 C.3        1  LIG1  -0.1124
      2 C2         49.4552    43.7929    33.4376 C.ar       1  LIG1  -0.0603
      3 C3         49.4217    44.7168    34.4652 C.ar       1  LIG1  -0.1490
      4 C4         48.6360    44.4841    35.5785 C.ar       1  LIG1  -0.0203
      5 C5         47.8836    43.3276    35.6640 C.ar       1  LIG1  -0.6130
      6 C6         47.9164    42.4042    34.6359 C.ar       1  LIG1  -0.0204
      7 C7         48.6987    42.6389    33.5206 C.ar       1  LIG1  -0.1489
      8 S1         46.8829    43.0305    37.0835 S.o2       1  LIG1   2.5873
      9 O1         46.7001    41.6235    37.1642 O.2        1  LIG1  -1.0244
     10 O2         47.4488    43.7872    38.1448 O.2        1  LIG1  -1.0245
     11 N1         45.3927    43.6848    36.7779 N.2        1  LIG1  -1.0362
     12 C8         44.6410    43.2318    35.6926 C.2        1  LIG1   0.2016
     13 C9         44.1842    41.9803    35.4485 C.2        1  LIG1  -0.2401
     14 C10        43.4255    41.8203    34.2283 C.2        1  LIG1  -0.1323
     15 C11        43.2502    42.9460    33.4526 C.2        1  LIG1  -0.2395
     16 S2         44.0429    44.1596    34.2968 S.3        1  LIG1  -0.0764
     17 C12        42.5091    43.0615    32.1454 C.3        1  LIG1  -0.0396
     18 C13        42.8691    40.5214    33.8342 C.2        1  LIG1   0.5393
     19 O3         43.5303    39.7564    33.1441 O.co2      1  LIG1  -0.7032
     20 O4         41.7437    40.2026    34.1955 O.co2      1  LIG1  -0.7028
     21 H1         50.8305    44.9985    32.3378 H          1  LIG1   0.0708
     22 H2         51.0429    43.2447    32.1209 H          1  LIG1   0.0646
     23 H3         49.6818    44.0802    31.3351 H          1  LIG1   0.0645
     24 H4         50.0096    45.6204    34.3984 H          1  LIG1   0.1232
     25 H5         48.6103    45.2057    36.3818 H          1  LIG1   0.1370
     26 H6         47.3289    41.5005    34.7028 H          1  LIG1   0.1370
     27 H7         48.7216    41.9191    32.7158 H          1  LIG1   0.1232
     28 H8         44.3744    41.1566    36.1205 H          1  LIG1   0.1243
     29 H9         42.5574    44.0909    31.7902 H          1  LIG1   0.0447
     30 H10        42.9667    42.4011    31.4088 H          1  LIG1   0.0334
     31 H11        41.4674    42.7761    32.2918 H          1  LIG1   0.0925
@<TRIPOS>BOND
     1    1    2 1
     2    1   21 1
     3    1   22 1
     4    1   23 1
     5    2    7 ar
     6    2    3 ar
     7    3    4 ar
     8    3   24 1
     9    4    5 ar
    10    4   25 1
    11    5    6 ar
    12    5    8 1
    13    6    7 ar
    14    6   26 1
    15    7   27 1
    16    8    9 2
    17    8   10 2
    18    8   11 1
    19   11   12 1
    20   12   16 1
    21   12   13 2
    22   13   14 1
    23   13   28 1
    24   14   15 2
    25   14   18 1
    26   15   16 1
    27   15   17 1
    28   17   29 1
    29   17   30 1
    30   17   31 1
    31   18   19 2
    32   18   20 1
##########                 Name:                  212
##########          Protonation:                 none
##########               SMILES:   CSCC[C@@H](C(=O)O)N1C(=O)c2ccc(cc2C1=O)C(=O)O
##########            Long Name:   -[(1S)-1-carboxy-3-methylsulfanyl-propyl]-1,3-dioxo-isoindoline-5-carboxylic
##########          FlexRecCode: 1
##########               Number:                   57
##########   Ligand Source File: ./ligands-ampc-0000001.db2.gz
##########           GlobalRank: 36
##########                 Rank:                    1
##########               Setnum:                   42
##########             Matchnum:                 2187
##########                Cloud:                    1
##########        Electrostatic:           -60.322273
##########                 Gist:             1.785080
##########        Van der Waals:           -18.682842
##########  Ligand Polar Desolv:            44.228180
########## Ligand Apolar Desolv:            -3.251524
##########      Internal Energy:             0.000000
##########      Receptor Energy: 0.0
########## Receptor Desolvation:             0.000000
########## Receptor Hydrophobic:             0.000000
##########         Total Energy: -36.24
##########        Ligand Charge:            -2.000000
##########            Arbitrary:    +999.9990
##########     heavy atom count:   22
##########           pose count:    1
##########        Ligand Energy:             0.000000

@<TRIPOS>MOLECULE
              212      none
   33    34     0     0     0



@<TRIPOS>ATOM
      1 C1         47.0464    45.6009    34.6563 C.3        1  LIG1  -0.1207
      2 S1         45.4882    46.4663    34.3196 S.3        1  LIG1  -0.2733
      3 C2         44.2357    45.4575    35.1585 C.3        1  LIG1  -0.0738
      4 C3         43.8903    44.2465    34.2894 C.3        1  LIG1  -0.0995
      5 C4         42.8338    43.3956    34.9971 C.3        1  LIG1   0.0781
      6 C5         42.4936    42.2029    34.1411 C.2        1  LIG1   0.4941
      7 O1         41.3500    42.0383    33.7516 O.co2      1  LIG1  -0.6588
      8 O2         43.3618    41.4023    33.8382 O.co2      1  LIG1  -0.6925
      9 N1         43.3586    42.9379    36.2860 N.am       1  LIG1  -0.5520
     10 C6         42.6030    42.6945    37.3719 C.2        1  LIG1   0.5753
     11 O3         41.3970    42.8172    37.4386 O.2        1  LIG1  -0.4338
     12 C7         43.4895    42.2518    38.4728 C.ar       1  LIG1  -0.1392
     13 C8         43.2772    41.8737    39.7890 C.ar       1  LIG1  -0.0677
     14 C9         44.3495    41.5035    40.5827 C.ar       1  LIG1  -0.0676
     15 C10        45.6451    41.5096    40.0632 C.ar       1  LIG1  -0.1234
     16 C11        45.8673    41.8899    38.7357 C.ar       1  LIG1  -0.0110
     17 C12        44.7955    42.2597    37.9416 C.ar       1  LIG1  -0.1632
     18 C13        44.6584    42.7006    36.5372 C.2        1  LIG1   0.5734
     19 O4         45.5684    42.8298    35.7433 O.2        1  LIG1  -0.4912
     20 C14        46.7840    41.1139    40.9174 C.2        1  LIG1   0.5252
     21 O5         46.5911    40.7817    42.0781 O.co2      1  LIG1  -0.6842
     22 O6         47.9192    41.1189    40.4636 O.co2      1  LIG1  -0.6810
     23 H1         47.8697    46.1388    34.1864 H          1  LIG1   0.0731
     24 H2         47.2106    45.5539    35.7329 H          1  LIG1   0.0744
     25 H3         46.9953    44.5898    34.2522 H          1  LIG1   0.0963
     26 H4         44.6261    45.1169    36.1175 H          1  LIG1   0.0748
     27 H5         43.3385    46.0545    35.3228 H          1  LIG1   0.0812
     28 H6         43.4998    44.5871    33.3304 H          1  LIG1   0.0870
     29 H7         44.7873    43.6494    34.1252 H          1  LIG1   0.0879
     30 H8         41.9368    43.9925    35.1614 H          1  LIG1   0.0983
     31 H9         42.2765    41.8681    40.1952 H          1  LIG1   0.1324
     32 H10        44.1829    41.2090    41.6082 H          1  LIG1   0.1410
     33 H11        46.8692    41.8954    38.3327 H          1  LIG1   0.1404
@<TRIPOS>BOND
     1    1    2 1
     2    1   23 1
     3    1   24 1
     4    1   25 1
     5    2    3 1
     6    3    4 1
     7    3   26 1
     8    3   27 1
     9    4    5 1
    10    4   28 1
    11    4   29 1
    12    5    6 1
    13    5    9 1
    14    5   30 1
    15    6    7 2
    16    6    8 1
    17    9   18 am
    18    9   10 am
    19   10   11 2
    20   10   12 1
    21   12   17 ar
    22   12   13 ar
    23   13   14 ar
    24   13   31 1
    25   14   15 ar
    26   14   32 1
    27   15   16 ar
    28   15   20 1
    29   16   17 ar
    30   16   33 1
    31   17   18 1
    32   18   19 2
    33   20   21 2
    34   20   22 1
##########                 Name:                  115
##########          Protonation:                 none
##########               SMILES:   c1cc(c(cc1NS(=O)(=O)c2ccsc2C(=O)O)Cl)C(=O)O
##########            Long Name:   3-[(4-carboxy-3-chloro-phenyl)sulfamoyl]thiophene-2-carboxylic
##########          FlexRecCode: 1
##########               Number:                   49
##########   Ligand Source File: ./ligands-ampc-0000001.db2.gz
##########           GlobalRank: 37
##########                 Rank:                    1
##########               Setnum:                   29
##########             Matchnum:                 3622
##########                Cloud:                    1
##########        Electrostatic:           -81.494583
##########                 Gist:             1.646125
##########        Van der Waals:           -14.449746
##########  Ligand Polar Desolv:            60.384377
########## Ligand Apolar Desolv:            -2.255923
##########      Internal Energy:             0.000000
##########      Receptor Energy: 0.0
########## Receptor Desolvation:             0.000000
########## Receptor Hydrophobic:             0.000000
##########         Total Energy: -36.17
##########        Ligand Charge:            -3.000000
##########            Arbitrary:    +999.9990
##########     heavy atom count:   22
##########           pose count:    1
##########        Ligand Energy:             0.000000

@<TRIPOS>MOLECULE
              115      none
   27    28     0     0     0



@<TRIPOS>ATOM
      1 C1         44.5334    44.3565    37.3294 C.ar       1  LIG1  -0.2062
      2 C2         43.2296    44.1442    36.9850 C.ar       1  LIG1  -0.0319
      3 C3         42.9159    43.2961    35.9167 C.ar       1  LIG1  -0.2600
      4 C4         43.9438    42.6661    35.2021 C.ar       1  LIG1   0.0691
      5 C5         45.2565    42.8861    35.5560 C.ar       1  LIG1  -0.2891
      6 C6         45.5570    43.7316    36.6208 C.ar       1  LIG1   0.3074
      7 N1         46.8814    43.9526    36.9775 N.2        1  LIG1  -1.0619
      8 S1         47.8362    42.6825    37.4435 S.o2       1  LIG1   2.6306
      9 O1         47.7606    41.7151    36.4053 O.2        1  LIG1  -1.0609
     10 O2         49.0695    43.2394    37.8776 O.2        1  LIG1  -0.9973
     11 C7         47.0835    41.9582    38.8625 C.2        1  LIG1  -0.6566
     12 C8         45.9056    41.2584    38.7870 C.2        1  LIG1  -0.0879
     13 C9         45.3801    40.7259    39.9197 C.2        1  LIG1  -0.3161
     14 S2         46.4695    41.1590    41.1230 S.3        1  LIG1   0.1375
     15 C10        47.6479    42.0541    40.1288 C.2        1  LIG1  -0.0399
     16 C11        48.8467    42.6977    40.5266 C.2        1  LIG1   0.5246
     17 O3         48.8256    43.8732    40.8707 O.co2      1  LIG1  -0.5832
     18 O4         49.9035    42.0783    40.5263 O.co2      1  LIG1  -0.7017
     19 Cl1        43.5640    41.6120    33.8761 Cl         1  LIG1  -0.0990
     20 C12        41.5117    43.0660    35.5455 C.2        1  LIG1   0.5352
     21 O5         41.2394    42.3237    34.6117 O.co2      1  LIG1  -0.7260
     22 O6         40.6155    43.6169    36.1707 O.co2      1  LIG1  -0.6944
     23 H1         44.7724    45.0147    38.1516 H          1  LIG1   0.1043
     24 H2         42.4396    44.6310    37.5375 H          1  LIG1   0.1094
     25 H3         46.0522    42.4027    35.0086 H          1  LIG1   0.0962
     26 H4         45.4031    41.1333    37.8392 H          1  LIG1   0.1292
     27 H5         44.4695    40.1546    40.0236 H          1  LIG1   0.1687
@<TRIPOS>BOND
     1    1    6 ar
     2    1    2 ar
     3    1   23 1
     4    2    3 ar
     5    2   24 1
     6    3    4 ar
     7    3   20 1
     8    4    5 ar
     9    4   19 1
    10    5    6 ar
    11    5   25 1
    12    6    7 1
    13    7    8 1
    14    8    9 2
    15    8   10 2
    16    8   11 1
    17   11   15 2
    18   11   12 1
    19   12   13 2
    20   12   26 1
    21   13   14 1
    22   13   27 1
    23   14   15 1
    24   15   16 1
    25   16   17 2
    26   16   18 1
    27   20   21 2
    28   20   22 1
##########                 Name:                  312
##########          Protonation:                 none
##########               SMILES:   c1ccc(cc1)c2[nH]c(cn2)C(=O)O
##########            Long Name:   2-phenyl-1H-imidazole-5-carboxylic
##########          FlexRecCode: 1
##########               Number:                   76
##########   Ligand Source File: ./ligands-ampc-0000001.db2.gz
##########           GlobalRank: 38
##########                 Rank:                    1
##########               Setnum:                    3
##########             Matchnum:                 3630
##########                Cloud:                    1
##########        Electrostatic:           -49.272800
##########                 Gist:             3.885508
##########        Van der Waals:           -16.416811
##########  Ligand Polar Desolv:            28.089479
########## Ligand Apolar Desolv:            -2.030994
##########      Internal Energy:             0.000000
##########      Receptor Energy: 0.0
########## Receptor Desolvation:             0.000000
########## Receptor Hydrophobic:             0.000000
##########         Total Energy: -35.75
##########        Ligand Charge:            -1.000000
##########            Arbitrary:    +999.9990
##########     heavy atom count:   14
##########           pose count:    1
##########        Ligand Energy:             0.000000

@<TRIPOS>MOLECULE
              312      none
   21    22     0     0     0



@<TRIPOS>ATOM
      1 C1         47.6226    41.2176    40.9733 C.ar       1  LIG1  -0.1264
      2 C2         46.3083    41.0336    41.3640 C.ar       1  LIG1  -0.1159
      3 C3         45.2804    41.2898    40.4799 C.ar       1  LIG1  -0.0849
      4 C4         45.5689    41.7357    39.1897 C.ar       1  LIG1   0.0119
      5 C5         46.8964    41.9196    38.8022 C.ar       1  LIG1  -0.1227
      6 C6         47.9152    41.6595    39.6954 C.ar       1  LIG1  -0.1181
      7 C7         44.4715    42.0119    38.2365 C.2        1  LIG1   0.1877
      8 N1         44.2962    41.4148    37.0837 N.2        1  LIG1  -0.4239
      9 C8         43.1952    41.9238    36.4891 C.2        1  LIG1  -0.0377
     10 C9         42.6735    42.8836    37.3286 C.2        1  LIG1  -0.0134
     11 N2         43.4726    42.9274    38.4184 N.pl3      1  LIG1  -0.5646
     12 C10        42.6526    41.5264    35.1826 C.2        1  LIG1   0.5571
     13 O1         43.2107    40.6563    34.5273 O.co2      1  LIG1  -0.6734
     14 O2         41.6426    42.0652    34.7497 O.co2      1  LIG1  -0.6926
     15 H1         48.4234    41.0197    41.6704 H          1  LIG1   0.1204
     16 H2         46.0862    40.6884    42.3630 H          1  LIG1   0.1257
     17 H3         44.2548    41.1452    40.7857 H          1  LIG1   0.1395
     18 H4         47.1261    42.2643    37.8048 H          1  LIG1   0.1151
     19 H5         48.9433    41.8011    39.3965 H          1  LIG1   0.1219
     20 H6         41.7924    43.4828    37.1522 H          1  LIG1   0.1843
     21 H7         43.3590    43.5056    39.1891 H          1  LIG1   0.4100
@<TRIPOS>BOND
     1    1    6 ar
     2    1    2 ar
     3    1   15 1
     4    2    3 ar
     5    2   16 1
     6    3    4 ar
     7    3   17 1
     8    4    5 ar
     9    4    7 1
    10    5    6 ar
    11    5   18 1
    12    6   19 1
    13    7   11 1
    14    7    8 2
    15    8    9 1
    16    9   10 2
    17    9   12 1
    18   10   11 1
    19   10   20 1
    20   11   21 1
    21   12   13 2
    22   12   14 1
##########                 Name:                  121
##########          Protonation:                 none
##########               SMILES:   c1cc(cc(c1)S(=O)(=O)Nc2ccsc2C(=O)O)[N+](=O)[O-]
##########            Long Name:   3-[(3-nitrophenyl)sulfonylamino]thiophene-2-carboxylic
##########          FlexRecCode: 1
##########               Number:                   96
##########   Ligand Source File: ./ligands-ampc-0000001.db2.gz
##########           GlobalRank: 39
##########                 Rank:                    1
##########               Setnum:                   29
##########             Matchnum:                 1014
##########                Cloud:                    1
##########        Electrostatic:           -47.001804
##########                 Gist:             5.177958
##########        Van der Waals:           -22.693325
##########  Ligand Polar Desolv:            30.996296
########## Ligand Apolar Desolv:            -2.097379
##########      Internal Energy:             0.000000
##########      Receptor Energy: 0.0
########## Receptor Desolvation:             0.000000
########## Receptor Hydrophobic:             0.000000
##########         Total Energy: -35.62
##########        Ligand Charge:            -1.000000
##########            Arbitrary:    +999.9990
##########     heavy atom count:   21
##########           pose count:    1
##########        Ligand Energy:             0.000000

@<TRIPOS>MOLECULE
              121      none
   28    29     0     0     0



@<TRIPOS>ATOM
      1 C1         43.2102    44.4306    35.0726 C.ar       1  LIG1  -0.1364
      2 C2         42.5923    43.2787    34.6223 C.ar       1  LIG1  -0.0049
      3 C3         43.0425    42.0423    35.0454 C.ar       1  LIG1  -0.0701
      4 C4         44.1109    41.9574    35.9187 C.ar       1  LIG1   0.0538
      5 C5         44.7292    43.1090    36.3683 C.ar       1  LIG1  -0.6746
      6 C6         44.2780    44.3457    35.9461 C.ar       1  LIG1   0.0321
      7 S1         46.0902    43.0009    37.4821 S.o2       1  LIG1   2.6946
      8 O1         46.6637    41.7138    37.2989 O.2        1  LIG1  -0.9452
      9 O2         46.8394    44.1981    37.3254 O.2        1  LIG1  -0.9440
     10 N1         45.4698    43.0285    39.0173 N.pl3      1  LIG1  -1.0087
     11 C7         45.1246    41.8395    39.6486 C.2        1  LIG1   0.1309
     12 C8         46.0195    41.1268    40.4214 C.2        1  LIG1  -0.2240
     13 C9         45.6131    39.9760    41.0072 C.2        1  LIG1  -0.2481
     14 S2         44.0087    39.8102    40.5389 S.3        1  LIG1   0.2281
     15 C10        43.8445    41.2845    39.5504 C.2        1  LIG1  -0.1804
     16 C11        42.7205    41.7638    38.8515 C.2        1  LIG1   0.4944
     17 O3         42.8008    42.9003    38.1595 O.co2      1  LIG1  -0.6825
     18 O4         41.5760    41.0814    38.8816 O.co2      1  LIG1  -0.6894
     19 N2         42.3803    40.8091    34.5641 N.pl3      1  LIG1   0.0354
     20 O5         42.7741    39.7276    34.9343 O.2        1  LIG1  -0.1583
     21 O6         41.4458    40.8834    33.8008 O.3        1  LIG1  -0.1469
     22 H1         42.8613    45.3965    34.7384 H          1  LIG1   0.1584
     23 H2         41.7577    43.3449    33.9401 H          1  LIG1   0.1612
     24 H3         44.4622    40.9914    36.2500 H          1  LIG1   0.1712
     25 H4         44.7608    45.2456    36.2976 H          1  LIG1   0.1603
     26 H5         45.3475    43.8745    39.4759 H          1  LIG1   0.4432
     27 H6         47.0303    41.4824    40.5566 H          1  LIG1   0.1645
     28 H7         46.1907    39.3132    41.6345 H          1  LIG1   0.1853
@<TRIPOS>BOND
     1    1    6 ar
     2    1    2 ar
     3    1   22 1
     4    2    3 ar
     5    2   23 1
     6    3    4 ar
     7    3   19 1
     8    4    5 ar
     9    4   24 1
    10    5    6 ar
    11    5    7 1
    12    6   25 1
    13    7    8 2
    14    7    9 2
    15    7   10 1
    16   10   11 1
    17   10   26 1
    18   11   15 2
    19   11   12 1
    20   12   13 2
    21   12   27 1
    22   13   14 1
    23   13   28 1
    24   14   15 1
    25   15   16 1
    26   16   17 2
    27   16   18 1
    28   19   20 2
    29   19   21 1
##########                 Name:                  104
##########          Protonation:                 none
##########               SMILES:   c1ccc(c(c1)NS(=O)(=O)c2ccsc2C(=O)O)N3CCCCC3
##########            Long Name:   3-[[2-(1-piperidyl)phenyl]sulfamoyl]thiophene-2-carboxylic
##########          FlexRecCode: 1
##########               Number:                  107
##########   Ligand Source File: ./ligands-ampc-0000001.db2.gz
##########           GlobalRank: 40
##########                 Rank:                    1
##########               Setnum:                   43
##########             Matchnum:                 4093
##########                Cloud:                    1
##########        Electrostatic:           -57.196022
##########                 Gist:             5.734666
##########        Van der Waals:           -11.267378
##########  Ligand Polar Desolv:            29.362341
########## Ligand Apolar Desolv:            -1.534641
##########      Internal Energy:             0.000000
##########      Receptor Energy: 0.0
########## Receptor Desolvation:             0.000000
########## Receptor Hydrophobic:             0.000000
##########         Total Energy: -34.9
##########        Ligand Charge:            -1.000000
##########            Arbitrary:    +999.9990
##########     heavy atom count:   24
##########           pose count:    1
##########        Ligand Energy:             0.000000

@<TRIPOS>MOLECULE
              104      none
   41    43     0     0     0



@<TRIPOS>ATOM
      1 C1         44.3829    44.1594    41.6745 C.ar       1  LIG1  -0.0869
      2 C2         45.5611    44.8197    41.3788 C.ar       1  LIG1  -0.1458
      3 C3         46.2907    44.4715    40.2572 C.ar       1  LIG1  -0.0987
      4 C4         45.8417    43.4570    39.4253 C.ar       1  LIG1   0.1426
      5 C5         44.6534    42.7906    39.7239 C.ar       1  LIG1   0.1828
      6 C6         43.9278    43.1467    40.8506 C.ar       1  LIG1  -0.1732
      7 N1         44.1940    41.7657    38.8879 N.pl3      1  LIG1  -1.0253
      8 S1         42.7181    41.8988    38.1488 S.o2       1  LIG1   2.7204
      9 O1         42.2870    40.5756    37.8616 O.2        1  LIG1  -0.9733
     10 O2         41.9486    42.7965    38.9369 O.2        1  LIG1  -0.9304
     11 C7         42.9822    42.6904    36.5969 C.2        1  LIG1  -0.7082
     12 C8         42.9396    44.0548    36.4566 C.2        1  LIG1  -0.1026
     13 C9         43.1521    44.5996    35.2316 C.2        1  LIG1  -0.2909
     14 S2         43.4166    43.2759    34.2316 S.3        1  LIG1   0.2260
     15 C10        43.2528    41.9733    35.4377 C.2        1  LIG1  -0.0647
     16 C11        43.3666    40.5713    35.2601 C.2        1  LIG1   0.5368
     17 O3         42.3767    39.9076    34.9767 O.co2      1  LIG1  -0.6426
     18 O4         44.4546    40.0238    35.3899 O.co2      1  LIG1  -0.6606
     19 N2         46.5787    43.1030    38.2886 N.pl3      1  LIG1  -0.6708
     20 C12        46.8478    44.0897    37.2337 C.3        1  LIG1   0.1422
     21 C13        48.3571    44.1369    36.9762 C.3        1  LIG1  -0.1336
     22 C14        48.8612    42.7267    36.6611 C.3        1  LIG1  -0.1158
     23 C15        48.6043    41.8115    37.8606 C.3        1  LIG1  -0.1332
     24 C16        47.1029    41.7396    38.1311 C.3        1  LIG1   0.1394
     25 H1         43.8189    44.4324    42.5541 H          1  LIG1   0.1233
     26 H2         45.9122    45.6101    42.0256 H          1  LIG1   0.1202
     27 H3         47.2103    44.9899    40.0287 H          1  LIG1   0.1215
     28 H4         43.0072    42.6326    41.0848 H          1  LIG1   0.1332
     29 H5         44.7403    40.9776    38.7417 H          1  LIG1   0.4350
     30 H6         42.7392    44.6865    37.3093 H          1  LIG1   0.1391
     31 H7         43.1511    45.6453    34.9615 H          1  LIG1   0.1823
     32 H8         46.3300    43.7980    36.3200 H          1  LIG1   0.0496
     33 H9         46.5009    45.0719    37.5550 H          1  LIG1   0.0691
     34 H10        48.5615    44.7937    36.1305 H          1  LIG1   0.0641
     35 H11        48.8659    44.5155    37.8627 H          1  LIG1   0.0616
     36 H12        48.3344    42.3391    35.7892 H          1  LIG1   0.0619
     37 H13        49.9306    42.7613    36.4533 H          1  LIG1   0.0559
     38 H14        48.9845    40.8132    37.6443 H          1  LIG1   0.0655
     39 H15        49.1107    42.2121    38.7388 H          1  LIG1   0.0608
     40 H16        46.9244    41.1717    39.0441 H          1  LIG1   0.0700
     41 H17        46.6064    41.2520    37.2920 H          1  LIG1   0.0533
@<TRIPOS>BOND
     1    1    6 ar
     2    1    2 ar
     3    1   25 1
     4    2    3 ar
     5    2   26 1
     6    3    4 ar
     7    3   27 1
     8    4    5 ar
     9    4   19 1
    10    5    6 ar
    11    5    7 1
    12    6   28 1
    13    7    8 1
    14    7   29 1
    15    8    9 2
    16    8   10 2
    17    8   11 1
    18   11   15 2
    19   11   12 1
    20   12   13 2
    21   12   30 1
    22   13   14 1
    23   13   31 1
    24   14   15 1
    25   15   16 1
    26   16   17 2
    27   16   18 1
    28   19   24 1
    29   19   20 1
    30   20   21 1
    31   20   32 1
    32   20   33 1
    33   21   22 1
    34   21   34 1
    35   21   35 1
    36   22   23 1
    37   22   36 1
    38   22   37 1
    39   23   24 1
    40   23   38 1
    41   23   39 1
    42   24   40 1
    43   24   41 1
##########                 Name:                  118
##########          Protonation:                 none
##########               SMILES:   c1ccc(c(c1)NS(=O)(=O)c2ccsc2C(=O)O)[N+](=O)[O-]
##########            Long Name:   3-[(2-nitrophenyl)sulfamoyl]thiophene-2-carboxylic
##########          FlexRecCode: 1
##########               Number:                   29
##########   Ligand Source File: ./ligands-ampc-0000001.db2.gz
##########           GlobalRank: 41
##########                 Rank:                    1
##########               Setnum:                   34
##########             Matchnum:                 7922
##########                Cloud:                    1
##########        Electrostatic:           -78.557816
##########                 Gist:             4.001261
##########        Van der Waals:           -18.618998
##########  Ligand Polar Desolv:            59.895279
########## Ligand Apolar Desolv:            -1.547255
##########      Internal Energy:             0.000000
##########      Receptor Energy: 0.0
########## Receptor Desolvation:             0.000000
########## Receptor Hydrophobic:             0.000000
##########         Total Energy: -34.83
##########        Ligand Charge:            -2.000000
##########            Arbitrary:    +999.9990
##########     heavy atom count:   21
##########           pose count:    1
##########        Ligand Energy:             0.000000

@<TRIPOS>MOLECULE
              118      none
   27    28     0     0     0



@<TRIPOS>ATOM
      1 C1         48.1559    42.5681    38.0743 C.ar       1  LIG1  -0.0326
      2 C2         48.3206    42.4976    39.4457 C.ar       1  LIG1  -0.2452
      3 C3         47.2810    42.0665    40.2487 C.ar       1  LIG1  -0.0118
      4 C4         46.0738    41.7045    39.6834 C.ar       1  LIG1  -0.1350
      5 C5         45.9050    41.7741    38.3065 C.ar       1  LIG1   0.3345
      6 C6         46.9518    42.2077    37.5025 C.ar       1  LIG1  -0.2527
      7 N1         44.6858    41.4085    37.7314 N.2        1  LIG1  -0.9931
      8 S1         43.4988    42.5429    37.5157 S.o2       1  LIG1   2.6418
      9 O1         42.2668    41.8367    37.4641 O.2        1  LIG1  -1.0519
     10 O2         43.7466    43.5747    38.4607 O.2        1  LIG1  -0.9885
     11 C7         43.7399    43.2522    35.9209 C.2        1  LIG1  -0.6615
     12 C8         44.1734    44.5435    35.7542 C.2        1  LIG1  -0.0920
     13 C9         44.3382    45.0277    34.4968 C.2        1  LIG1  -0.3104
     14 S2         43.9096    43.7442    33.5012 S.3        1  LIG1   0.1661
     15 C10        43.5087    42.5381    34.7514 C.2        1  LIG1  -0.0391
     16 C11        43.0673    41.2002    34.5936 C.2        1  LIG1   0.5301
     17 O3         41.8693    40.9550    34.5212 O.co2      1  LIG1  -0.5996
     18 O4         43.8838    40.2893    34.5296 O.co2      1  LIG1  -0.6911
     19 N2         44.9616    41.2426    40.5437 N.pl3      1  LIG1   0.0650
     20 O5         43.9054    40.9256    40.0480 O.2        1  LIG1  -0.2886
     21 O6         45.1093    41.1821    41.7421 O.3        1  LIG1  -0.1119
     22 H1         48.9686    42.9095    37.4503 H          1  LIG1   0.1127
     23 H2         49.2636    42.7797    39.8904 H          1  LIG1   0.1153
     24 H3         47.4130    42.0123    41.3192 H          1  LIG1   0.1251
     25 H4         46.8237    42.2633    36.4316 H          1  LIG1   0.1131
     26 H5         44.3803    45.1664    36.6119 H          1  LIG1   0.1294
     27 H6         44.6689    46.0131    34.2034 H          1  LIG1   0.1722
@<TRIPOS>BOND
     1    1    6 ar
     2    1    2 ar
     3    1   22 1
     4    2    3 ar
     5    2   23 1
     6    3    4 ar
     7    3   24 1
     8    4    5 ar
     9    4   19 1
    10    5    6 ar
    11    5    7 1
    12    6   25 1
    13    7    8 1
    14    8    9 2
    15    8   10 2
    16    8   11 1
    17   11   15 2
    18   11   12 1
    19   12   13 2
    20   12   26 1
    21   13   14 1
    22   13   27 1
    23   14   15 1
    24   15   16 1
    25   16   17 2
    26   16   18 1
    27   19   20 2
    28   19   21 1
##########                 Name:                  320
##########          Protonation:                 none
##########               SMILES:   C1CC[C@H]([C@H](C1)c2[nH]c(nn2)S)C(=O)O
##########            Long Name:   (1R,2S)-2-(5-sulfanyl-4H-1,2,4-triazol-3-yl)cyclohexanecarboxylic
##########          FlexRecCode: 1
##########               Number:                   33
##########   Ligand Source File: ./ligands-ampc-0000001.db2.gz
##########           GlobalRank: 42
##########                 Rank:                    1
##########               Setnum:                    4
##########             Matchnum:                 5953
##########                Cloud:                    1
##########        Electrostatic:           -43.623833
##########                 Gist:             0.612305
##########        Van der Waals:           -11.932007
##########  Ligand Polar Desolv:            21.624100
########## Ligand Apolar Desolv:            -1.247742
##########      Internal Energy:             0.000000
##########      Receptor Energy: 0.0
########## Receptor Desolvation:             0.000000
########## Receptor Hydrophobic:             0.000000
##########         Total Energy: -34.57
##########        Ligand Charge:            -1.000000
##########            Arbitrary:    +999.9990
##########     heavy atom count:   15
##########           pose count:    1
##########        Ligand Energy:             0.000000

@<TRIPOS>MOLECULE
              320      none
   27    28     0     0     0



@<TRIPOS>ATOM
      1 C1         48.0498    44.9540    37.8373 C.3        1  LIG1  -0.1087
      2 C2         48.9120    44.1747    36.8424 C.3        1  LIG1  -0.1354
      3 C3         48.5225    44.5647    35.4152 C.3        1  LIG1  -0.0834
      4 C4         47.0474    44.2333    35.1804 C.3        1  LIG1  -0.1613
      5 H1         46.7698    44.5111    34.1636 H          1  LIG1   0.0731
      6 C5         46.1851    45.0126    36.1755 C.3        1  LIG1  -0.0136
      7 H2         46.3442    46.0817    36.0346 H          1  LIG1   0.1067
      8 C6         46.5746    44.6226    37.6027 C.3        1  LIG1  -0.1198
      9 C7         44.7321    44.6861    35.9443 C.cat      1  LIG1   0.3797
     10 N1         43.9174    44.1521    36.8183 N.pl3      1  LIG1  -0.5439
     11 C8         42.7054    44.0026    36.2743 C.2        1  LIG1   0.4070
     12 N2         42.7398    44.4443    35.0387 N.2        1  LIG1  -0.2919
     13 N3         44.0485    44.8984    34.8075 N.pl3      1  LIG1  -0.3708
     14 S1         41.2943    43.3245    37.0827 S.3        1  LIG1  -0.7183
     15 C9         46.8274    42.7553    35.3752 C.2        1  LIG1   0.4943
     16 O1         47.7263    41.9679    35.1326 O.co2      1  LIG1  -0.6681
     17 O2         45.7506    42.3465    35.7752 O.co2      1  LIG1  -0.6971
     18 H3         48.3273    44.6763    38.8541 H          1  LIG1   0.0653
     19 H4         48.2089    46.0232    37.6965 H          1  LIG1   0.0584
     20 H5         49.9630    44.4107    37.0095 H          1  LIG1   0.0516
     21 H6         48.7530    43.1056    36.9832 H          1  LIG1   0.1051
     22 H7         48.6816    45.6338    35.2742 H          1  LIG1   0.0452
     23 H8         49.1368    44.0094    34.7063 H          1  LIG1   0.0686
     24 H9         46.4155    43.5535    37.7434 H          1  LIG1   0.0764
     25 H10        45.9603    45.1778    38.3116 H          1  LIG1   0.0675
     26 H11        44.3916    45.2872    33.9877 H          1  LIG1   0.4676
     27 H12        44.1569    43.9024    37.7246 H          1  LIG1   0.4457
@<TRIPOS>BOND
     1    1    8 1
     2    1    2 1
     3    1   18 1
     4    1   19 1
     5    2    3 1
     6    2   20 1
     7    2   21 1
     8    3    4 1
     9    3   22 1
    10    3   23 1
    11    4    5 1
    12    4    6 1
    13    4   15 1
    14    6    7 1
    15    6    8 1
    16    6    9 1
    17    8   24 1
    18    8   25 1
    19    9   10 2
    20    9   13 1
    21   10   11 1
    22   10   27 1
    23   11   14 1
    24   11   12 2
    25   12   13 1
    26   13   26 1
    27   15   16 2
    28   15   17 1
##########                 Name:                  314
##########          Protonation:                 none
##########               SMILES:   C1=C[C@H]2[C@@H](C=C1)C(=O)C(=O)C=C2S(=O)(=O)O
##########            Long Name:   (4aR,8aS)-3,4-dioxo-4a,8a-dihydronaphthalene-1-sulfonic
##########          FlexRecCode: 1
##########               Number:                   75
##########   Ligand Source File: ./ligands-ampc-0000001.db2.gz
##########           GlobalRank: 43
##########                 Rank:                    1
##########               Setnum:                    2
##########             Matchnum:                 4065
##########                Cloud:                    1
##########        Electrostatic:           -41.873741
##########                 Gist:             0.436478
##########        Van der Waals:           -13.174430
##########  Ligand Polar Desolv:            20.394686
########## Ligand Apolar Desolv:             0.537075
##########      Internal Energy:             0.000000
##########      Receptor Energy: 0.0
########## Receptor Desolvation:             0.000000
########## Receptor Hydrophobic:             0.000000
##########         Total Energy: -33.68
##########        Ligand Charge:            -1.000000
##########            Arbitrary:    +999.9990
##########     heavy atom count:   16
##########           pose count:    1
##########        Ligand Energy:             0.000000

@<TRIPOS>MOLECULE
              314      none
   23    24     0     0     0



@<TRIPOS>ATOM
      1 C1         46.3854    44.8145    36.2304 C.2        1  LIG1  -0.1117
      2 C2         45.1478    44.3451    36.2371 C.2        1  LIG1  -0.1350
      3 C3         44.8697    42.8666    36.2027 C.3        1  LIG1   0.0035
      4 H1         44.8312    42.5768    35.1527 H          1  LIG1   0.1134
      5 C4         45.9959    42.0643    36.8443 C.3        1  LIG1  -0.0903
      6 H2         45.9460    41.0358    36.4868 H          1  LIG1   0.1174
      7 C5         47.3534    42.6222    36.5354 C.2        1  LIG1  -0.1685
      8 C6         47.5323    43.8965    36.2149 C.2        1  LIG1  -0.0920
      9 C7         45.7928    42.0733    38.3469 C.2        1  LIG1   0.3449
     10 O1         46.6680    42.3944    39.1149 O.2        1  LIG1  -0.4066
     11 C8         44.4254    41.6551    38.8149 C.2        1  LIG1   0.3501
     12 O2         44.2638    41.0287    39.8429 O.2        1  LIG1  -0.4071
     13 C9         43.2940    42.0467    37.9579 C.2        1  LIG1  -0.1329
     14 C10        43.5132    42.5881    36.7834 C.2        1  LIG1  -0.5944
     15 S1         42.0964    43.0105    35.8248 S.o2       1  LIG1   2.6769
     16 O3         42.4668    44.1531    35.0043 O.2        1  LIG1  -1.0506
     17 O4         41.7697    41.8452    35.0178 O.2        1  LIG1  -1.0553
     18 O5         41.0337    43.3370    36.7630 O.3        1  LIG1  -1.0386
     19 H3         46.5535    45.8814    36.2320 H          1  LIG1   0.1265
     20 H4         44.3199    45.0380    36.2681 H          1  LIG1   0.1386
     21 H5         48.2068    41.9605    36.5165 H          1  LIG1   0.1201
     22 H6         48.5191    44.2713    35.9867 H          1  LIG1   0.1235
     23 H7         42.2827    41.8905    38.3033 H          1  LIG1   0.1680
@<TRIPOS>BOND
     1    1    8 1
     2    1    2 2
     3    1   19 1
     4    2    3 1
     5    2   20 1
     6    3    4 1
     7    3   14 1
     8    3    5 1
     9    5    6 1
    10    5    7 1
    11    5    9 1
    12    7    8 2
    13    7   21 1
    14    8   22 1
    15    9   10 2
    16    9   11 1
    17   11   12 2
    18   11   13 1
    19   13   14 2
    20   13   23 1
    21   14   15 1
    22   15   16 2
    23   15   17 2
    24   15   18 1
##########                 Name:                  103
##########          Protonation:                 none
##########               SMILES:   c1cc(ccc1NS(=O)(=O)c2ccsc2C(=O)O)S(=O)(=O)N
##########            Long Name:   3-[(4-sulfamoylphenyl)sulfamoyl]thiophene-2-carboxylic
##########          FlexRecCode: 1
##########               Number:                   90
##########   Ligand Source File: ./ligands-ampc-0000001.db2.gz
##########           GlobalRank: 44
##########                 Rank:                    1
##########               Setnum:                   66
##########             Matchnum:                 4566
##########                Cloud:                    1
##########        Electrostatic:           -84.560013
##########                 Gist:             5.648304
##########        Van der Waals:           -14.311491
##########  Ligand Polar Desolv:            61.312782
########## Ligand Apolar Desolv:            -0.157961
##########      Internal Energy:             0.000000
##########      Receptor Energy: 0.0
########## Receptor Desolvation:             0.000000
########## Receptor Hydrophobic:             0.000000
##########         Total Energy: -32.07
##########        Ligand Charge:            -2.000000
##########            Arbitrary:    +999.9990
##########     heavy atom count:   22
##########           pose count:    1
##########        Ligand Energy:             0.000000

@<TRIPOS>MOLECULE
              103      none
   30    31     0     0     0



@<TRIPOS>ATOM
      1 C1         44.3054    41.8155    40.4005 C.ar       1  LIG1  -0.1957
      2 C2         45.3395    42.0351    41.2894 C.ar       1  LIG1   0.0080
      3 C3         46.6461    41.7958    40.9052 C.ar       1  LIG1  -0.7898
      4 C4         46.9222    41.3356    39.6307 C.ar       1  LIG1   0.0292
      5 C5         45.8930    41.1140    38.7369 C.ar       1  LIG1  -0.2811
      6 C6         44.5793    41.3533    39.1195 C.ar       1  LIG1   0.3383
      7 N1         43.5359    41.1297    38.2182 N.2        1  LIG1  -1.0401
      8 S1         43.0285    42.3496    37.2198 S.o2       1  LIG1   2.6434
      9 O1         41.6864    42.0496    36.8617 O.2        1  LIG1  -1.0509
     10 O2         43.3943    43.5692    37.8505 O.2        1  LIG1  -0.9888
     11 C7         43.9804    42.2423    35.7408 C.2        1  LIG1  -0.6625
     12 C8         45.3173    42.5500    35.7091 C.2        1  LIG1  -0.0932
     13 C9         45.9912    42.4456    34.5355 C.2        1  LIG1  -0.3087
     14 S2         44.8302    41.9263    33.4378 S.3        1  LIG1   0.1638
     15 C10        43.4266    41.8351    34.5332 C.2        1  LIG1  -0.0474
     16 C11        42.0927    41.4498    34.2464 C.2        1  LIG1   0.5280
     17 O3         41.2746    42.2905    33.8938 O.co2      1  LIG1  -0.5984
     18 O4         41.7584    40.2759    34.3510 O.co2      1  LIG1  -0.6917
     19 S3         47.9623    42.0784    42.0419 S.o2       1  LIG1   2.7035
     20 O5         48.5331    40.8086    42.3264 O.2        1  LIG1  -0.9939
     21 O6         48.7258    43.1570    41.5193 O.2        1  LIG1  -0.9937
     22 N2         47.2836    42.6190    43.4525 N.pl3      1  LIG1  -1.2586
     23 H1         43.2848    41.9987    40.7025 H          1  LIG1   0.1185
     24 H2         45.1272    42.3945    42.2855 H          1  LIG1   0.1172
     25 H3         47.9438    41.1497    39.3339 H          1  LIG1   0.1148
     26 H4         46.1093    40.7549    37.7416 H          1  LIG1   0.1029
     27 H5         45.8264    42.8711    36.6058 H          1  LIG1   0.1308
     28 H6         47.0353    42.6502    34.3496 H          1  LIG1   0.1730
     29 H7         47.0197    41.9851    44.1378 H          1  LIG1   0.4172
     30 H8         47.1497    43.5693    43.5935 H          1  LIG1   0.4061
@<TRIPOS>BOND
     1    1    6 ar
     2    1    2 ar
     3    1   23 1
     4    2    3 ar
     5    2   24 1
     6    3    4 ar
     7    3   19 1
     8    4    5 ar
     9    4   25 1
    10    5    6 ar
    11    5   26 1
    12    6    7 1
    13    7    8 1
    14    8    9 2
    15    8   10 2
    16    8   11 1
    17   11   15 2
    18   11   12 1
    19   12   13 2
    20   12   27 1
    21   13   14 1
    22   13   28 1
    23   14   15 1
    24   15   16 1
    25   16   17 2
    26   16   18 1
    27   19   20 2
    28   19   21 2
    29   19   22 1
    30   22   29 1
    31   22   30 1
##########                 Name:                  114
##########          Protonation:                 none
##########               SMILES:   c1cc(cc(c1)NS(=O)(=O)c2ccsc2C(=O)O)C(=O)O
##########            Long Name:   3-[(3-carboxyphenyl)sulfamoyl]thiophene-2-carboxylic
##########          FlexRecCode: 1
##########               Number:                   19
##########   Ligand Source File: ./ligands-ampc-0000001.db2.gz
##########           GlobalRank: 45
##########                 Rank:                    1
##########               Setnum:                    9
##########             Matchnum:                  517
##########                Cloud:                    1
##########        Electrostatic:           -82.090149
##########                 Gist:             2.310532
##########        Van der Waals:           -16.493238
##########  Ligand Polar Desolv:            65.992188
########## Ligand Apolar Desolv:            -1.509480
##########      Internal Energy:             0.000000
##########      Receptor Energy: 0.0
########## Receptor Desolvation:             0.000000
########## Receptor Hydrophobic:             0.000000
##########         Total Energy: -31.79
##########        Ligand Charge:            -3.000000
##########            Arbitrary:    +999.9990
##########     heavy atom count:   21
##########           pose count:    1
##########        Ligand Energy:             0.000000

@<TRIPOS>MOLECULE
              114      none
   27    28     0     0     0



@<TRIPOS>ATOM
      1 C1         42.7649    44.1841    36.5875 C.ar       1  LIG1  -0.0939
      2 C2         42.1917    43.3279    35.6698 C.ar       1  LIG1  -0.1994
      3 C3         42.8877    42.1943    35.2426 C.ar       1  LIG1  -0.1118
      4 C4         44.1629    41.9327    35.7478 C.ar       1  LIG1  -0.1386
      5 C5         44.7289    42.7997    36.6693 C.ar       1  LIG1   0.2752
      6 C6         44.0274    43.9249    37.0874 C.ar       1  LIG1  -0.2774
      7 N1         46.0043    42.5426    37.1784 N.2        1  LIG1  -1.0657
      8 S1         47.3023    42.4532    36.1538 S.o2       1  LIG1   2.6265
      9 O1         48.4575    42.3289    36.9719 O.2        1  LIG1  -1.0694
     10 O2         46.9679    41.4971    35.1573 O.2        1  LIG1  -1.0053
     11 C7         47.4290    44.0091    35.3366 C.2        1  LIG1  -0.6550
     12 C8         46.7866    44.2658    34.1515 C.2        1  LIG1  -0.0873
     13 C9         46.9271    45.4868    33.5751 C.2        1  LIG1  -0.3181
     14 S2         47.9362    46.3247    34.6249 S.3        1  LIG1   0.1349
     15 C10        48.1812    45.0569    35.8540 C.2        1  LIG1  -0.0378
     16 C11        48.9457    45.1044    37.0468 C.2        1  LIG1   0.5243
     17 O3         50.1259    44.7768    37.0313 O.co2      1  LIG1  -0.5811
     18 O4         48.4259    45.4728    38.0932 O.co2      1  LIG1  -0.7029
     19 C12        42.2772    41.2765    34.2616 C.2        1  LIG1   0.5295
     20 O5         41.1601    41.5075    33.8210 O.co2      1  LIG1  -0.7169
     21 O6         42.8884    40.2850    33.8891 O.co2      1  LIG1  -0.7013
     22 H1         42.2273    45.0622    36.9131 H          1  LIG1   0.0837
     23 H2         41.2050    43.5339    35.2819 H          1  LIG1   0.0971
     24 H3         44.7061    41.0580    35.4219 H          1  LIG1   0.1120
     25 H4         44.4704    44.5990    37.8056 H          1  LIG1   0.0831
     26 H5         46.1777    43.5065    33.6834 H          1  LIG1   0.1280
     27 H6         46.4903    45.8389    32.6524 H          1  LIG1   0.1679
@<TRIPOS>BOND
     1    1    6 ar
     2    1    2 ar
     3    1   22 1
     4    2    3 ar
     5    2   23 1
     6    3    4 ar
     7    3   19 1
     8    4    5 ar
     9    4   24 1
    10    5    6 ar
    11    5    7 1
    12    6   25 1
    13    7    8 1
    14    8    9 2
    15    8   10 2
    16    8   11 1
    17   11   15 2
    18   11   12 1
    19   12   13 2
    20   12   26 1
    21   13   14 1
    22   13   27 1
    23   14   15 1
    24   15   16 1
    25   16   17 2
    26   16   18 1
    27   19   20 2
    28   19   21 1
##########                 Name:                  108
##########          Protonation:                 none
##########               SMILES:   c1cc(ccc1S(=O)(=O)Nc2ccsc2C(=O)O)Cl
##########            Long Name:   3-[(4-chlorophenyl)sulfonylamino]thiophene-2-carboxylic
##########          FlexRecCode: 1
##########               Number:                   14
##########   Ligand Source File: ./ligands-ampc-0000001.db2.gz
##########           GlobalRank: 46
##########                 Rank:                    1
##########               Setnum:                    4
##########             Matchnum:                 6816
##########                Cloud:                    1
##########        Electrostatic:           -40.005783
##########                 Gist:             3.589630
##########        Van der Waals:           -20.523851
##########  Ligand Polar Desolv:            25.511005
########## Ligand Apolar Desolv:            -0.308540
##########      Internal Energy:             0.000000
##########      Receptor Energy: 0.0
########## Receptor Desolvation:             0.000000
########## Receptor Hydrophobic:             0.000000
##########         Total Energy: -31.74
##########        Ligand Charge:            -1.000000
##########            Arbitrary:    +999.9990
##########     heavy atom count:   19
##########           pose count:    1
##########        Ligand Energy:             0.000000

@<TRIPOS>MOLECULE
              108      none
   26    27     0     0     0



@<TRIPOS>ATOM
      1 C1         44.6227    42.9515    39.7770 C.ar       1  LIG1   0.0029
      2 C2         45.6897    42.7612    40.6346 C.ar       1  LIG1  -0.1325
      3 C3         46.0085    41.4871    41.0696 C.ar       1  LIG1   0.0181
      4 C4         45.2590    40.4042    40.6458 C.ar       1  LIG1  -0.1342
      5 C5         44.1921    40.5957    39.7882 C.ar       1  LIG1  -0.0017
      6 C6         43.8741    41.8690    39.3538 C.ar       1  LIG1  -0.6697
      7 S1         42.5136    42.1125    38.2609 S.o2       1  LIG1   2.6930
      8 O1         41.6404    41.0069    38.4467 O.2        1  LIG1  -0.9537
      9 O2         42.0880    43.4570    38.4354 O.2        1  LIG1  -0.9531
     10 N1         43.0998    41.9984    36.7163 N.pl3      1  LIG1  -1.0119
     11 C7         44.0854    42.8760    36.2806 C.2        1  LIG1   0.1374
     12 C8         44.1985    44.1617    36.7706 C.2        1  LIG1  -0.2221
     13 C9         45.1842    44.9615    36.2999 C.2        1  LIG1  -0.2481
     14 S2         45.9964    44.0112    35.1784 S.3        1  LIG1   0.2223
     15 C10        45.0354    42.5165    35.3190 C.2        1  LIG1  -0.1836
     16 C11        45.1908    41.2941    34.6386 C.2        1  LIG1   0.4970
     17 O3         44.3577    40.2832    34.8856 O.co2      1  LIG1  -0.6848
     18 O4         46.1709    41.1473    33.7475 O.co2      1  LIG1  -0.6919
     19 Cl1        47.3490    41.2472    42.1463 Cl         1  LIG1  -0.0617
     20 H1         44.3709    43.9465    39.4409 H          1  LIG1   0.1520
     21 H2         46.2747    43.6068    40.9648 H          1  LIG1   0.1443
     22 H3         45.5076    39.4094    40.9848 H          1  LIG1   0.1432
     23 H4         43.6071    39.7504    39.4569 H          1  LIG1   0.1499
     24 H5         42.7552    41.3192    36.1157 H          1  LIG1   0.4408
     25 H6         43.5098    44.5247    37.5192 H          1  LIG1   0.1642
     26 H7         45.3996    45.9815    36.5820 H          1  LIG1   0.1841
@<TRIPOS>BOND
     1    1    6 ar
     2    1    2 ar
     3    1   20 1
     4    2    3 ar
     5    2   21 1
     6    3    4 ar
     7    3   19 1
     8    4    5 ar
     9    4   22 1
    10    5    6 ar
    11    5   23 1
    12    6    7 1
    13    7    8 2
    14    7    9 2
    15    7   10 1
    16   10   11 1
    17   10   24 1
    18   11   15 2
    19   11   12 1
    20   12   13 2
    21   12   25 1
    22   13   14 1
    23   13   26 1
    24   14   15 1
    25   15   16 1
    26   16   17 2
    27   16   18 1
##########                 Name:                  110
##########          Protonation:                 none
##########               SMILES:   c1ccc(c(c1)C(=O)Nc2ccc(cc2)Cl)C(=O)O
##########            Long Name:   2-[(4-chlorophenyl)carbamoyl]benzoic
##########          FlexRecCode: 1
##########               Number:                   53
##########   Ligand Source File: ./ligands-ampc-0000001.db2.gz
##########           GlobalRank: 47
##########                 Rank:                    1
##########               Setnum:                    6
##########             Matchnum:                 6273
##########                Cloud:                    1
##########        Electrostatic:           -33.090958
##########                 Gist:             2.164667
##########        Van der Waals:           -16.430489
##########  Ligand Polar Desolv:            23.246506
########## Ligand Apolar Desolv:            -2.464762
##########      Internal Energy:             0.000000
##########      Receptor Energy: 0.0
########## Receptor Desolvation:             0.000000
########## Receptor Hydrophobic:             0.000000
##########         Total Energy: -26.58
##########        Ligand Charge:            -1.000000
##########            Arbitrary:    +999.9990
##########     heavy atom count:   19
##########           pose count:    1
##########        Ligand Energy:             0.000000

@<TRIPOS>MOLECULE
              110      none
   28    29     0     0     0



@<TRIPOS>ATOM
      1 C1         45.3667    41.4010    40.4318 C.ar       1  LIG1  -0.1345
      2 C2         44.2069    40.7193    40.1080 C.ar       1  LIG1  -0.1174
      3 C3         43.6438    40.8534    38.8529 C.ar       1  LIG1  -0.0915
      4 C4         44.2446    41.6791    37.9049 C.ar       1  LIG1  -0.0872
      5 C5         45.4247    42.3726    38.2349 C.ar       1  LIG1  -0.1058
      6 C6         45.9768    42.2248    39.5037 C.ar       1  LIG1  -0.1094
      7 C7         46.0743    43.2526    37.2385 C.2        1  LIG1   0.5751
      8 O1         47.2139    43.0278    36.8806 O.2        1  LIG1  -0.4627
      9 N1         45.4024    44.3033    36.7279 N.am       1  LIG1  -0.6801
     10 C8         46.0165    45.1353    35.7859 C.ar       1  LIG1   0.1816
     11 C9         46.1889    46.4862    36.0583 C.ar       1  LIG1  -0.1426
     12 C10        46.7956    47.3054    35.1265 C.ar       1  LIG1  -0.0890
     13 C11        47.2310    46.7813    33.9220 C.ar       1  LIG1  -0.0622
     14 C12        47.0601    45.4356    33.6478 C.ar       1  LIG1  -0.0877
     15 C13        46.4601    44.6107    34.5788 C.ar       1  LIG1  -0.1133
     16 Cl1        47.9927    47.8138    32.7527 Cl         1  LIG1  -0.0843
     17 C14        43.6475    41.8256    36.5622 C.2        1  LIG1   0.5114
     18 O2         43.9775    41.0686    35.6604 O.co2      1  LIG1  -0.6860
     19 O3         42.8231    42.7038    36.3522 O.co2      1  LIG1  -0.6550
     20 H1         45.7956    41.2924    41.4169 H          1  LIG1   0.1198
     21 H2         43.7391    40.0782    40.8405 H          1  LIG1   0.1196
     22 H3         42.7387    40.3181    38.6069 H          1  LIG1   0.1331
     23 H4         46.8819    42.7537    39.7638 H          1  LIG1   0.1200
     24 H5         44.4929    44.4828    37.0135 H          1  LIG1   0.4068
     25 H6         45.8485    46.8958    36.9978 H          1  LIG1   0.1330
     26 H7         46.9298    48.3559    35.3379 H          1  LIG1   0.1326
     27 H8         47.4006    45.0293    32.7068 H          1  LIG1   0.1329
     28 H9         46.3317    43.5596    34.3664 H          1  LIG1   0.1426
@<TRIPOS>BOND
     1    1    6 ar
     2    1    2 ar
     3    1   20 1
     4    2    3 ar
     5    2   21 1
     6    3    4 ar
     7    3   22 1
     8    4    5 ar
     9    4   17 1
    10    5    6 ar
    11    5    7 1
    12    6   23 1
    13    7    8 2
    14    7    9 am
    15    9   10 1
    16    9   24 1
    17   10   15 ar
    18   10   11 ar
    19   11   12 ar
    20   11   25 1
    21   12   13 ar
    22   12   26 1
    23   13   14 ar
    24   13   16 1
    25   14   15 ar
    26   14   27 1
    27   15   28 1
    28   17   18 2
    29   17   19 1
##########                 Name:                  302
##########          Protonation:                 none
##########               SMILES:   CC(C)CNC(=O)[C@@H]1[C@H]2C[C@@H]([C@@H]1C(=O)O)C=C2
##########            Long Name:   (1S,2R,3S,4R)-2-(isobutylcarbamoyl)bicyclo[2.2.1]hept-5-ene-3-carboxylic
##########          FlexRecCode: 1
##########               Number:                   58
##########   Ligand Source File: ./ligands-ampc-0000001.db2.gz
##########           GlobalRank: 48
##########                 Rank:                    1
##########               Setnum:                    2
##########             Matchnum:                 2690
##########                Cloud:                    1
##########        Electrostatic:           -34.245392
##########                 Gist:             0.462994
##########        Van der Waals:           -12.498841
##########  Ligand Polar Desolv:            26.039379
########## Ligand Apolar Desolv:            -2.374715
##########      Internal Energy:             0.000000
##########      Receptor Energy: 0.0
########## Receptor Desolvation:             0.000000
########## Receptor Hydrophobic:             0.000000
##########         Total Energy: -22.62
##########        Ligand Charge:            -1.000000
##########            Arbitrary:    +999.9990
##########     heavy atom count:   17
##########           pose count:    1
##########        Ligand Energy:             0.000000

@<TRIPOS>MOLECULE
              302      none
   35    36     0     0     0



@<TRIPOS>ATOM
      1 C1         46.9296    41.9278    40.3594 C.3        1  LIG1  -0.1420
      2 C2         45.6385    41.1072    40.3347 C.3        1  LIG1  -0.1054
      3 C3         45.4522    40.4087    41.6832 C.3        1  LIG1  -0.1469
      4 C4         44.4500    42.0343    40.0720 C.3        1  LIG1   0.1310
      5 N1         44.6283    42.7031    38.7808 N.am       1  LIG1  -0.7278
      6 C5         43.5519    43.0604    38.0527 C.2        1  LIG1   0.5325
      7 O1         42.4356    42.8282    38.4664 O.2        1  LIG1  -0.5170
      8 C6         43.7354    43.7484    36.7245 C.3        1  LIG1  -0.0934
      9 H1         44.2752    44.6868    36.8516 H          1  LIG1   0.0746
     10 C7         42.3538    43.9980    36.0400 C.3        1  LIG1  -0.0549
     11 H2         41.7748    44.8420    36.4148 H          1  LIG1   0.0866
     12 C8         42.7915    44.0578    34.5307 C.3        1  LIG1  -0.1217
     13 C9         43.4468    42.6288    34.5693 C.3        1  LIG1  -0.0613
     14 H3         43.8328    42.2424    33.6261 H          1  LIG1   0.0866
     15 C10        44.4789    42.8231    35.7303 C.3        1  LIG1  -0.1482
     16 H4         45.3853    43.3045    35.3633 H          1  LIG1   0.0662
     17 C11        44.8042    41.5019    36.3782 C.2        1  LIG1   0.4947
     18 O2         45.9599    41.1171    36.4313 O.co2      1  LIG1  -0.6601
     19 O3         43.9117    40.8178    36.8493 O.co2      1  LIG1  -0.7011
     20 C12        42.3035    41.8347    35.2128 C.2        1  LIG1  -0.1024
     21 C13        41.6646    42.6286    36.0804 C.2        1  LIG1  -0.1743
     22 H5         47.0623    42.4254    39.3988 H          1  LIG1   0.0554
     23 H6         46.8698    42.6753    41.1506 H          1  LIG1   0.0533
     24 H7         47.7763    41.2674    40.5466 H          1  LIG1   0.0571
     25 H8         45.6981    40.3598    39.5436 H          1  LIG1   0.0699
     26 H9         44.5324    39.8242    41.6655 H          1  LIG1   0.0571
     27 H10        46.2990    39.7484    41.8703 H          1  LIG1   0.0659
     28 H11        45.3925    41.1562    42.4743 H          1  LIG1   0.0483
     29 H12        43.5302    41.4496    40.0544 H          1  LIG1   0.0631
     30 H13        44.3903    42.7816    40.8632 H          1  LIG1   0.0548
     31 H14        45.5211    42.8887    38.4501 H          1  LIG1   0.3951
     32 H15        41.9410    44.1089    33.8509 H          1  LIG1   0.0698
     33 H16        43.5194    44.8459    34.3381 H          1  LIG1   0.0646
     34 H17        42.0563    40.8038    35.0067 H          1  LIG1   0.1134
     35 H18        40.8135    42.3678    36.6921 H          1  LIG1   0.1165
@<TRIPOS>BOND
     1    1    2 1
     2    1   22 1
     3    1   23 1
     4    1   24 1
     5    2    3 1
     6    2    4 1
     7    2   25 1
     8    3   26 1
     9    3   27 1
    10    3   28 1
    11    4    5 1
    12    4   29 1
    13    4   30 1
    14    5    6 am
    15    5   31 1
    16    6    7 2
    17    6    8 1
    18    8    9 1
    19    8   15 1
    20    8   10 1
    21   10   11 1
    22   10   21 1
    23   10   12 1
    24   12   13 1
    25   12   32 1
    26   12   33 1
    27   13   14 1
    28   13   15 1
    29   13   20 1
    30   15   16 1
    31   15   17 1
    32   17   18 2
    33   17   19 1
    34   20   21 2
    35   20   34 1
    36   21   35 1