
########## Name:		1VRT.lig
########## Grid Score:           -5.043737
##########          vdw:           -4.592414
##########           es:           -0.451323
##########

@<TRIPOS>MOLECULE
1VRT.lig
 34 37 1 0 0
SMALL
USER_CHARGES


@<TRIPOS>ATOM
      1 N1         12.0530  -42.1688   12.7629 N.ar    1  LIG        -0.6650
      2 C1         11.2734  -41.3482   12.0238 C.ar    1  LIG         0.3947
      3 H1         11.6561  -40.9169   11.1140 H       1  LIG         0.0281
      4 C2          9.9676  -41.0203   12.3825 C.ar    1  LIG        -0.2334
      5 H2          9.3864  -40.3632   11.7578 H       1  LIG         0.1480
      6 C3          9.4402  -41.5464   13.5380 C.ar    1  LIG        -0.0698
      7 C4         10.2289  -42.3975   14.3164 C.ar    1  LIG        -0.0398
      8 N2          9.6997  -42.9070   15.5322 N.am    1  LIG        -0.4596
      9 H3          9.0936  -42.3326   16.0985 H       1  LIG         0.3311
     10 C5          9.8494  -44.0850   16.1314 C.2     1  LIG         0.7361
     11 C6         10.7292  -45.1620   15.5095 C.ar    1  LIG        -0.2550
     12 C7         10.3594  -46.4966   15.6981 C.ar    1  LIG        -0.0321
     13 H4          9.3824  -46.7354   16.0834 H       1  LIG         0.1623
     14 C8         11.2315  -47.4832   15.3952 C.ar    1  LIG        -0.2723
     15 H5         10.9495  -48.5131   15.5358 H       1  LIG         0.1522
     16 C9         12.4812  -47.1387   14.9057 C.ar    1  LIG         0.4373
     17 H6         13.1978  -47.9073   14.6699 H       1  LIG         0.0280
     18 N3         12.8733  -45.8628   14.6978 N.ar    1  LIG        -0.6893
     19 C10        12.0089  -44.8818   14.9869 C.ar    1  LIG         0.6480
     20 N4         12.4310  -43.5443   14.7383 N.pl3   1  LIG        -0.6924
     21 C11        11.5437  -42.6930   13.9001 C.ar    1  LIG         0.5805
     22 C12         8.0158  -41.2132   13.9467 C.3     1  LIG        -0.0620
     23 H7          7.4478  -42.1049   14.0059 H       1  LIG         0.0570
     24 H8          8.0224  -40.7353   14.8917 H       1  LIG         0.0495
     25 H9          7.5843  -40.5668   13.2273 H       1  LIG         0.0519
     26 O1          9.2369  -44.3513   17.1751 O.2     1  LIG        -0.6361
     27 C13        13.8574  -43.4069   14.4581 C.3     1  LIG         0.1354
     28 H10        14.0013  -43.2716   13.4177 H       1  LIG         0.0981
     29 C14        14.5552  -42.2676   15.1190 C.3     1  LIG        -0.1181
     30 H11        15.1535  -41.7597   14.4079 H       1  LIG         0.0732
     31 H12        13.8382  -41.5988   15.5191 H       1  LIG         0.0789
     32 C15        14.7815  -43.6650   15.5893 C.3     1  LIG        -0.1196
     33 H13        14.2524  -44.1352   16.3770 H       1  LIG         0.0807
     34 H14        15.5678  -44.2963   15.2658 H       1  LIG         0.0733
@<TRIPOS>BOND
     1     2     1   ar
     2     3     2    1
     3     4     2   ar
     4     5     4    1
     5     6     4   ar
     6     7     6   ar
     7     8     7    1
     8     9     8    1
     9    10     8    1
    10    11    10    1
    11    12    11   ar
    12    13    12    1
    13    14    12   ar
    14    15    14    1
    15    16    14   ar
    16    17    16    1
    17    18    16   ar
    18    19    11   ar
    19    19    18   ar
    20    20    19    1
    21    21     1   ar
    22    21     7   ar
    23    21    20    1
    24    22     6    1
    25    23    22    1
    26    24    22    1
    27    25    22    1
    28    26    10    2
    29    27    20    1
    30    28    27    1
    31    29    27    1
    32    30    29    1
    33    31    29    1
    34    32    27    1
    35    32    29    1
    36    33    32    1
    37    34    32    1
@<TRIPOS>SUBSTRUCTURE
     1 LIG         1 TEMP              0 ****  ****    0 ROOT


########## Name:		ZINC00001905
########## Grid Score:           -3.300156
##########          vdw:           -2.912359
##########           es:           -0.387797
##########

@<TRIPOS>MOLECULE
ZINC00001905
 20 21 1 0 0
SMALL
USER_CHARGES


@<TRIPOS>ATOM
      1 C1          9.8280  -41.3296   12.9959 C.3     1  ****       -0.0850
      2 C2         10.3773  -42.7351   13.2535 C.3     1  ****       -0.0850
      3 C3         11.0755  -42.8901   14.6010 C.3     1  ****       -0.1060
      4 C4         12.4679  -42.3653   14.6057 C.2     1  ****        0.3910
      5 N1         13.4980  -42.8763   15.2517 N.2     1  ****       -0.3830
      6 N2         14.5723  -42.0717   14.9611 N.2     1  ****       -0.0510
      7 N3         14.2213  -41.0813   14.1548 N.2     1  ****       -0.1980
      8 N4         12.9065  -41.2537   13.9378 N.pl3   1  ****       -0.0740
      9 C5         12.1918  -40.3448   13.0718 C.3     1  ****        0.0520
     10 C6         10.7208  -40.1652   13.4295 C.3     1  ****       -0.0980
     11 H1          8.8621  -41.2253   13.5064 H       1  ****        0.0500
     12 H2          9.6128  -41.2393   11.9241 H       1  ****        0.0480
     13 H3          9.5359  -43.4376   13.2048 H       1  ****        0.0560
     14 H4         11.0576  -43.0191   12.4393 H       1  ****        0.0530
     15 H5         10.4952  -42.4138   15.3984 H       1  ****        0.0720
     16 H6         11.1209  -43.9600   14.8430 H       1  ****        0.0860
     17 H7         12.6932  -39.3729   13.1524 H       1  ****        0.0820
     18 H8         12.3167  -40.7043   12.0447 H       1  ****        0.0650
     19 H9         10.3449  -39.2558   12.9453 H       1  ****        0.0620
     20 H10        10.6136  -40.0025   14.5093 H       1  ****        0.0610
@<TRIPOS>BOND
     1     2     1    1
     2     3     2    1
     3     4     3    1
     4     5     4    2
     5     6     5    1
     6     7     6    2
     7     8     4    1
     8     8     7    1
     9     9     8    1
    10    10     1    1
    11    10     9    1
    12    11     1    1
    13    12     1    1
    14    13     2    1
    15    14     2    1
    16    15     3    1
    17    16     3    1
    18    17     9    1
    19    18     9    1
    20    19    10    1
    21    20    10    1
@<TRIPOS>SUBSTRUCTURE
     1 ****        1 TEMP              0 ****  ****    0 ROOT


########## Name:		ZINC00001098
########## Grid Score:           -3.294611
##########          vdw:           -2.692636
##########           es:           -0.601975
##########

@<TRIPOS>MOLECULE
ZINC00001098
 17 18 1 0 0
SMALL
USER_CHARGES


@<TRIPOS>ATOM
      1 C1         11.3883  -44.6755   15.9829 C.ar    1  ****       -0.1630
      2 C2         10.0509  -44.8198   15.6061 C.ar    1  ****       -0.0690
      3 C3          9.4004  -43.7912   14.9262 C.ar    1  ****       -0.1500
      4 C4         10.0987  -42.6224   14.6270 C.ar    1  ****        0.1520
      5 C5         11.4280  -42.4711   14.9983 C.ar    1  ****       -0.2140
      6 C6         12.0813  -43.5007   15.6805 C.ar    1  ****       -0.0370
      7 C7         12.1253  -41.2232   14.6631 C.2     1  ****        0.7320
      8 O1         13.2976  -41.0444   14.9702 O.2     1  ****       -0.5880
      9 N1         11.3594  -40.2907   13.9883 N.am    1  ****       -0.5980
     10 C8         10.0323  -40.4163   13.6068 C.2     1  ****        0.8330
     11 O2          9.4261  -39.5320   13.0057 O.2     1  ****       -0.5760
     12 O3          9.3995  -41.6179   13.9417 O.3     1  ****       -0.3040
     13 H1         11.8173  -39.4187   13.7454 H       1  ****        0.3590
     14 H2         11.8915  -45.4796   16.5134 H       1  ****        0.1480
     15 H3          9.5168  -45.7357   15.8443 H       1  ****        0.1460
     16 H4          8.3613  -43.9056   14.6344 H       1  ****        0.1650
     17 H5         13.1212  -43.4059   15.9803 H       1  ****        0.1650
@<TRIPOS>BOND
     1     2     1   ar
     2     3     2   ar
     3     4     3   ar
     4     5     4   ar
     5     6     1   ar
     6     6     5   ar
     7     7     5    1
     8     8     7    2
     9     9     7    1
    10    10     9    1
    11    11    10    2
    12    12     4    1
    13    12    10    1
    14    13     9    1
    15    14     1    1
    16    15     2    1
    17    16     3    1
    18    17     6    1
@<TRIPOS>SUBSTRUCTURE
     1 ****        1 TEMP              0 ****  ****    0 ROOT


########## Name:		ZINC00001052
########## Grid Score:           -3.153193
##########          vdw:           -2.698807
##########           es:           -0.454386
##########

@<TRIPOS>MOLECULE
ZINC00001052
 15 16 1 0 0
SMALL
USER_CHARGES


@<TRIPOS>ATOM
      1 C1         11.7428  -42.0790   14.5418 C.ar    1  ****       -0.1310
      2 C2         10.3685  -42.0520   14.4792 C.ar    1  ****        0.0220
      3 C3          9.5917  -43.1860   14.5636 C.ar    1  ****        0.0410
      4 C4         10.1548  -44.4340   14.7174 C.ar    1  ****       -0.0630
      5 C5         11.5540  -44.5061   14.7862 C.ar    1  ****       -0.0370
      6 C6         12.3448  -43.3349   14.6987 C.ar    1  ****        0.0500
      7 CL1        14.0724  -43.3811   14.7790 Cl      1  ****       -0.0550
      8 BR1        12.3226  -46.2328   15.0002 Br      1  ****       -0.0460
      9 O1          8.2363  -42.9084   14.4755 O.3     1  ****       -0.2850
     10 C7          8.2191  -41.5110   14.3285 C.2     1  ****        0.8200
     11 O2          7.1869  -40.8626   14.2162 O.2     1  ****       -0.5620
     12 N1          9.5060  -41.0001   14.3317 N.am    1  ****       -0.4680
     13 H1          9.7632  -40.0261   14.2417 H       1  ****        0.3690
     14 H2         12.3275  -41.1680   14.4721 H       1  ****        0.1660
     15 H3          9.5295  -45.3172   14.7828 H       1  ****        0.1780
@<TRIPOS>BOND
     1     2     1   ar
     2     3     2   ar
     3     4     3   ar
     4     5     4   ar
     5     6     1   ar
     6     6     5   ar
     7     7     6    1
     8     8     5    1
     9     9     3    1
    10    10     9    1
    11    11    10    2
    12    12     2    1
    13    12    10    1
    14    13    12    1
    15    14     1    1
    16    15     4    1
@<TRIPOS>SUBSTRUCTURE
     1 ****        1 TEMP              0 ****  ****    0 ROOT


########## Name:		ZINC00001621
########## Grid Score:           -3.076155
##########          vdw:           -3.135754
##########           es:            0.059598
##########

@<TRIPOS>MOLECULE
ZINC00001621
 18 18 1 0 0
SMALL
USER_CHARGES


@<TRIPOS>ATOM
      1 C1         12.2036  -43.9801   14.5180 C.3     1  ****        0.0260
      2 C2         12.4274  -42.4628   14.6306 C.3     1  ****        0.0260
      3 C3         11.5155  -41.6724   13.6759 C.3     1  ****        0.0260
      4 C4         10.0346  -42.0518   13.8460 C.3     1  ****        0.0260
      5 C5          9.8103  -43.5692   13.7343 C.3     1  ****        0.0260
      6 C6         10.7221  -44.3596   14.6889 C.3     1  ****        0.0260
      7 CL1        10.5137  -46.1302   14.3982 Cl      1  ****       -0.1310
      8 CL2         8.0824  -43.9531   14.0925 Cl      1  ****       -0.1310
      9 CL3         9.0439  -41.1997   12.5990 Cl      1  ****       -0.1310
     10 CL4        11.7247  -39.9017   13.9673 Cl      1  ****       -0.1310
     11 CL5        14.1558  -42.0778   14.2730 Cl      1  ****       -0.1310
     12 CL6        13.1937  -44.8323   15.7658 Cl      1  ****       -0.1310
     13 H1         12.5652  -44.3358   13.5449 H       1  ****        0.1050
     14 H2         12.2487  -42.1388   15.6637 H       1  ****        0.1050
     15 H3         11.8251  -41.8513   12.6381 H       1  ****        0.1050
     16 H4          9.6732  -41.6961   14.8206 H       1  ****        0.1050
     17 H5          9.9897  -43.8930   12.7018 H       1  ****        0.1050
     18 H6         10.4139  -44.1804   15.7266 H       1  ****        0.1050
@<TRIPOS>BOND
     1     2     1    1
     2     3     2    1
     3     4     3    1
     4     5     4    1
     5     6     1    1
     6     6     5    1
     7     7     6    1
     8     8     5    1
     9     9     4    1
    10    10     3    1
    11    11     2    1
    12    12     1    1
    13    13     1    1
    14    14     2    1
    15    15     3    1
    16    16     4    1
    17    17     5    1
    18    18     6    1
@<TRIPOS>SUBSTRUCTURE
     1 ****        1 TEMP              0 ****  ****    0 ROOT


########## Name:		ZINC00000710
########## Grid Score:           -2.967522
##########          vdw:           -2.947475
##########           es:           -0.020046
##########

@<TRIPOS>MOLECULE
ZINC00000710
 23 25 1 0 0
SMALL
USER_CHARGES


@<TRIPOS>ATOM
      1 C1          8.1386  -44.4634   10.9532 C.ar    1  ****       -0.0750
      2 C2          8.8525  -45.6078   11.3093 C.ar    1  ****       -0.1480
      3 C3          9.4485  -45.6874   12.5674 C.ar    1  ****        0.1420
      4 C4          9.3033  -44.6298   13.4813 C.ar    1  ****       -0.2000
      5 C5          8.5850  -43.4863   13.1309 C.ar    1  ****       -0.0370
      6 C6          8.0108  -43.4085   11.8604 C.ar    1  ****       -0.0200
      7 CL1         7.1224  -42.0026   11.4115 Cl      1  ****       -0.0790
      8 C7          9.8667  -44.7769   14.8450 C.2     1  ****        0.6730
      9 O1          9.5838  -44.0016   15.7464 O.2     1  ****       -0.5400
     10 N1         10.6560  -45.8726   14.9350 N.am    1  ****       -0.2540
     11 C8         11.1547  -46.6320   13.8320 C.3     1  ****        0.2280
     12 O2         10.1238  -46.8504   12.8677 O.3     1  ****       -0.3320
     13 C9         11.5755  -47.9282   14.4754 C.3     1  ****       -0.1130
     14 C10        12.0637  -47.4193   15.8186 C.3     1  ****        0.1020
     15 O3         11.2389  -46.2821   16.1445 O.3     1  ****       -0.2360
     16 H1          7.6840  -44.4056    9.9669 H       1  ****        0.1550
     17 H2          8.9449  -46.4281   10.6034 H       1  ****        0.1600
     18 H3          8.4651  -42.6682   13.8368 H       1  ****        0.1740
     19 H4         12.0187  -46.1539   13.3416 H       1  ****        0.0970
     20 H5         10.7124  -48.5916   14.6086 H       1  ****        0.0880
     21 H6         12.3341  -48.4773   13.9126 H       1  ****        0.0770
     22 H7         11.9735  -48.1732   16.6048 H       1  ****        0.0670
     23 H8         13.1033  -47.0780   15.7669 H       1  ****        0.0700
@<TRIPOS>BOND
     1     2     1   ar
     2     3     2   ar
     3     4     3   ar
     4     5     4   ar
     5     6     1   ar
     6     6     5   ar
     7     7     6    1
     8     8     4    1
     9     9     8    2
    10    10     8    1
    11    11    10    1
    12    12     3    1
    13    12    11    1
    14    13    11    1
    15    14    13    1
    16    15    10    1
    17    15    14    1
    18    16     1    1
    19    17     2    1
    20    18     5    1
    21    19    11    1
    22    20    13    1
    23    21    13    1
    24    22    14    1
    25    23    14    1
@<TRIPOS>SUBSTRUCTURE
     1 ****        1 TEMP              0 ****  ****    0 ROOT


########## Name:		ZINC00000896
########## Grid Score:           -2.919200
##########          vdw:           -2.318518
##########           es:           -0.600682
##########

@<TRIPOS>MOLECULE
ZINC00000896
 14 15 1 0 0
SMALL
USER_CHARGES


@<TRIPOS>ATOM
      1 C1         11.9900  -41.5539   14.5732 C.2     1  ****        0.3820
      2 C2         10.8485  -42.3209   14.3071 C.2     1  ****       -0.3710
      3 C3         10.3921  -41.8738   13.0896 C.2     1  ****        0.1640
      4 N1         11.2570  -40.8954   12.7035 N.pl3   1  ****        0.0030
      5 N2         12.2472  -40.6762   13.5939 N.2     1  ****       -0.5100
      6 N3          9.3136  -42.2921   12.3850 N.2     1  ****       -0.6130
      7 C4          8.6736  -43.2423   13.0022 C.2     1  ****        0.5090
      8 N4          9.0234  -43.7896   14.2378 N.am    1  ****       -0.4960
      9 C5         10.1316  -43.3727   14.9804 C.2     1  ****        0.7470
     10 O1         10.4600  -43.8356   16.0653 O.2     1  ****       -0.6130
     11 H1         11.2339  -40.3403   11.8574 H       1  ****        0.3380
     12 H2          8.4486  -44.5300   14.6259 H       1  ****        0.3400
     13 H3         12.6479  -41.5885   15.4303 H       1  ****        0.0610
     14 H4          7.7691  -43.6999   12.5717 H       1  ****        0.0580
@<TRIPOS>BOND
     1     2     1    1
     2     3     2   ar
     3     4     3    1
     4     5     1    2
     5     5     4    1
     6     6     3    1
     7     7     6    2
     8     8     7    1
     9     9     2    1
    10     9     8    1
    11    10     9    2
    12    11     4    1
    13    12     8    1
    14    13     1    1
    15    14     7    1
@<TRIPOS>SUBSTRUCTURE
     1 ****        1 TEMP              0 ****  ****    0 ROOT


########## Name:		ZINC00001139
########## Grid Score:           -2.823336
##########          vdw:           -2.255418
##########           es:           -0.567918
##########

@<TRIPOS>MOLECULE
ZINC00001139
 15 16 1 0 0
SMALL
USER_CHARGES


@<TRIPOS>ATOM
      1 C1         12.0010  -42.4673   13.8542 C.ar    1  ****       -0.1290
      2 C2         11.0323  -41.4805   14.0647 C.ar    1  ****       -0.0850
      3 C3          9.7178  -41.8252   13.8346 C.ar    1  ****        0.0430
      4 C4          9.3701  -43.0913   13.4131 C.ar    1  ****        0.0090
      5 C5         10.2919  -44.0889   13.1940 C.ar    1  ****       -0.1270
      6 C6         11.6297  -43.7578   13.4227 C.ar    1  ****        0.0280
      7 CL1        12.8509  -44.9475   13.1735 Cl      1  ****       -0.0810
      8 N1          8.0073  -43.0941   13.2825 N.am    1  ****       -0.4700
      9 C7          7.5495  -41.8338   13.6258 C.2     1  ****        0.8190
     10 O1          6.3816  -41.4668   13.6271 O.2     1  ****       -0.5700
     11 O2          8.6181  -40.9946   13.9852 O.3     1  ****       -0.2880
     12 H1          7.4389  -43.8770   12.9878 H       1  ****        0.3670
     13 H2         13.0477  -42.2261   14.0275 H       1  ****        0.1570
     14 H3         11.3088  -40.4859   14.3968 H       1  ****        0.1650
     15 H4          9.9921  -45.0759   12.8621 H       1  ****        0.1610
@<TRIPOS>BOND
     1     2     1   ar
     2     3     2   ar
     3     4     3   ar
     4     5     4   ar
     5     6     1   ar
     6     6     5   ar
     7     7     6    1
     8     8     4    1
     9     9     8    1
    10    10     9    2
    11    11     3    1
    12    11     9    1
    13    12     8    1
    14    13     1    1
    15    14     2    1
    16    15     5    1
@<TRIPOS>SUBSTRUCTURE
     1 ****        1 TEMP              0 ****  ****    0 ROOT


########## Name:		ZINC00001555
########## Grid Score:           -2.412286
##########          vdw:           -2.221624
##########           es:           -0.190662
##########

@<TRIPOS>MOLECULE
ZINC00001555
 15 16 1 0 0
SMALL
USER_CHARGES


@<TRIPOS>ATOM
      1 C1         13.3113  -40.9415   12.9804 C.2     1  ****       -0.2790
      2 C2         14.0790  -41.7861   13.8379 C.2     1  ****        0.2980
      3 N1         13.3451  -42.3888   14.7926 N.2     1  ****       -0.4850
      4 N2         12.1326  -41.9168   14.5231 N.pl3   1  ****        0.0470
      5 C3         12.0488  -41.0678   13.4777 C.2     1  ****        0.0270
      6 N3         10.7838  -40.6685   13.3137 N.pl3   1  ****       -0.6390
      7 C4          9.9225  -41.2905   14.3272 C.3     1  ****        0.1310
      8 C5         10.8691  -42.1712   15.1804 C.3     1  ****        0.0350
      9 H1         10.4233  -40.0335   12.6113 H       1  ****        0.3830
     10 H2         13.6482  -40.3474   12.1446 H       1  ****        0.1700
     11 H3         15.1416  -41.9814   13.7996 H       1  ****        0.0410
     12 H4          9.4390  -40.5257   14.9421 H       1  ****        0.0770
     13 H5          9.1461  -41.8988   13.8504 H       1  ****        0.0510
     14 H6         10.6387  -43.2360   15.1074 H       1  ****        0.0700
     15 H7         10.9360  -41.8381   16.2192 H       1  ****        0.0710
@<TRIPOS>BOND
     1     2     1    1
     2     3     2    2
     3     4     3    1
     4     5     1    2
     5     5     4    1
     6     6     5    1
     7     7     6    1
     8     8     4    1
     9     8     7    1
    10     9     6    1
    11    10     1    1
    12    11     2    1
    13    12     7    1
    14    13     7    1
    15    14     8    1
    16    15     8    1
@<TRIPOS>SUBSTRUCTURE
     1 ****        1 TEMP              0 ****  ****    0 ROOT


########## Name:		ZINC00001738
########## Grid Score:           27.449797
##########          vdw:           27.042604
##########           es:            0.407191
##########

@<TRIPOS>MOLECULE
ZINC00001738
 36 40 1 0 0
SMALL
USER_CHARGES


@<TRIPOS>ATOM
      1 C1         14.0377  -46.0034   10.2716 C.ar    1  ****       -0.1180
      2 C2         14.6683  -46.7902   11.2306 C.ar    1  ****       -0.1260
      3 C3         14.4531  -46.5426   12.5862 C.ar    1  ****       -0.1190
      4 C4         13.5992  -45.5072   12.9991 C.ar    1  ****       -0.1040
      5 C5         12.9620  -44.7128   12.0290 C.ar    1  ****       -0.0620
      6 C6         13.1920  -44.9686   10.6674 C.ar    1  ****       -0.1230
      7 C7         12.0546  -43.5698   12.4139 C.3     1  ****        0.0160
      8 C8         11.7024  -43.5372   13.8616 C.2     1  ****       -0.0140
      9 C9         10.7701  -42.7920   14.5598 C.2     1  ****       -0.2180
     10 C10        10.8574  -43.1616   15.9231 C.2     1  ****       -0.2100
     11 C11        11.8403  -44.1171   16.0369 C.2     1  ****       -0.0680
     12 N1         12.3449  -44.3334   14.7794 N.pl3   1  ****       -0.0590
     13 C12        13.4212  -45.2650   14.4747 C.3     1  ****        0.0830
     14 C13        10.0285  -42.5897   16.9568 C.2     1  ****        0.6180
     15 O1         10.1076  -42.9095   18.1350 O.2     1  ****       -0.5450
     16 C14         9.0514  -41.5619   16.4825 C.ar    1  ****       -0.1220
     17 C15         8.2085  -40.9598   17.4243 C.ar    1  ****       -0.0930
     18 C16         7.2835  -39.9961   17.0196 C.ar    1  ****       -0.1210
     19 C17         7.1952  -39.6276   15.6776 C.ar    1  ****       -0.1210
     20 C18         8.0304  -40.2205   14.7293 C.ar    1  ****       -0.0930
     21 C19         8.9623  -41.1888   15.1224 C.ar    1  ****       -0.1210
     22 C20         9.8386  -41.7986   14.0747 C.2     1  ****        0.6200
     23 O2          9.7587  -41.4666   12.8999 O.2     1  ****       -0.5540
     24 H1         14.2065  -46.1933    9.2163 H       1  ****        0.1380
     25 H2         15.3305  -47.5953   10.9241 H       1  ****        0.1380
     26 H3         14.9595  -47.1613   13.3232 H       1  ****        0.1340
     27 H4         12.7102  -44.3571    9.9087 H       1  ****        0.1410
     28 H5         12.5469  -42.6269   12.1478 H       1  ****        0.0880
     29 H6         11.1293  -43.6481   11.8298 H       1  ****        0.0970
     30 H7         12.2225  -44.6533   16.8959 H       1  ****        0.1870
     31 H8         13.1785  -46.2048   14.9841 H       1  ****        0.0700
     32 H9         14.3371  -44.8368   14.8980 H       1  ****        0.0680
     33 H10         8.2573  -41.2289   18.4762 H       1  ****        0.1590
     34 H11         6.6302  -39.5311   17.7531 H       1  ****        0.1380
     35 H12         6.4736  -38.8772   15.3685 H       1  ****        0.1380
     36 H13         7.9407  -39.9154   13.6904 H       1  ****        0.1580
@<TRIPOS>BOND
     1     2     1   ar
     2     3     2   ar
     3     4     3   ar
     4     5     4   ar
     5     6     1   ar
     6     6     5   ar
     7     7     5    1
     8     8     7    1
     9     9     8    2
    10    10     9   ar
    11    11    10    2
    12    12     8   ar
    13    12    11    1
    14    13     4    1
    15    13    12    1
    16    14    10    1
    17    15    14    2
    18    16    14    1
    19    17    16   ar
    20    18    17   ar
    21    19    18   ar
    22    20    19   ar
    23    21    16   ar
    24    21    20   ar
    25    22     9    1
    26    22    21    1
    27    23    22    2
    28    24     1    1
    29    25     2    1
    30    26     3    1
    31    27     6    1
    32    28     7    1
    33    29     7    1
    34    30    11    1
    35    31    13    1
    36    32    13    1
    37    33    17    1
    38    34    18    1
    39    35    19    1
    40    36    20    1
@<TRIPOS>SUBSTRUCTURE
     1 ****        1 TEMP              0 ****  ****    0 ROOT

