
########## Name:		ZINC00000113
########## Energy Score:       -32147.816406
##########          vdw:       -32146.447266
##########           es:          -13.819158
##########       polsol:            9.293980
##########      apolsol:            3.156760
##########

@<TRIPOS>MOLECULE
ZINC00000113
 41 41 1 0 0
SMALL
USER_CHARGES
ethyl [N'-[6-(ethyl-(2-hydroxypropyl)amino)pyridazin-3-yl]hydrazino]formate

@<TRIPOS>ATOM
      1 C1         -2.9342   25.4186   21.4336 C.3     1  <0>        -0.1678
      2 C2         -3.4801   25.1434   22.8362 C.3     1  <0>         0.1254
      3 N1         -3.3640   26.3548   23.6517 N.pl3   1  <0>        -0.5986
      4 C3         -3.2759   26.2503   25.1104 C.3     1  <0>         0.1320
      5 C4         -1.8417   25.8989   25.5107 C.3     1  <0>         0.0779
      6 H1         -1.1678   26.6883   25.1781 H       1  <0>         0.0600
      7 C5         -1.7559   25.7626   27.0323 C.3     1  <0>        -0.1872
      8 O1         -1.4659   24.6630   24.8999 O.3     1  <0>        -0.5596
      9 C6         -3.3373   27.6067   23.0400 C.ar    1  <0>         0.3171
     10 C7         -3.2509   28.7631   23.8169 C.ar    1  <0>        -0.1049
     11 C8         -3.2219   29.9827   23.1639 C.ar    1  <0>        -0.1296
     12 C9         -3.2920   29.9806   21.7699 C.ar    1  <0>         0.2951
     13 N2         -3.3774   28.8335   21.1167 N.ar    1  <0>        -0.2765
     14 N3         -3.3990   27.7020   21.7221 N.ar    1  <0>        -0.2665
     15 N4         -3.2715   31.1842   21.0677 N.pl3   1  <0>        -0.5205
     16 N5         -3.1987   31.1778   19.6687 N.am    1  <0>        -0.4832
     17 C10        -3.1788   32.3419   18.9896 C.2     1  <0>         0.6549
     18 O2         -3.3130   33.3937   19.5828 O.2     1  <0>        -0.5592
     19 O3         -3.0100   32.3391   17.6538 O.3     1  <0>        -0.3748
     20 C11        -2.9488   31.0443   16.9998 C.3     1  <0>         0.0827
     21 C12        -4.2374   30.2691   17.2818 C.3     1  <0>        -0.1543
     22 H2         -3.0206   24.5173   20.8268 H       1  <0>         0.0628
     23 H3         -3.5067   26.2233   20.9723 H       1  <0>         0.0504
     24 H4         -1.8865   25.7113   21.5024 H       1  <0>         0.0610
     25 H5         -2.9075   24.3387   23.2974 H       1  <0>         0.0846
     26 H6         -4.5277   24.8507   22.7674 H       1  <0>         0.0716
     27 H7         -3.9523   25.4705   25.4602 H       1  <0>         0.0823
     28 H8         -3.5558   27.2028   25.5604 H       1  <0>         0.0951
     29 H9         -2.0426   26.7054   27.4983 H       1  <0>         0.0676
     30 H10        -2.4298   24.9732   27.3649 H       1  <0>         0.0654
     31 H11        -0.7341   25.5122   27.3176 H       1  <0>         0.0617
     32 H12        -2.0546   23.9252   25.1103 H       1  <0>         0.3770
     33 H13        -3.2040   28.7076   24.8945 H       1  <0>         0.1499
     34 H14        -3.1517   30.9082   23.7162 H       1  <0>         0.1484
     35 H15        -3.3077   32.0263   21.5477 H       1  <0>         0.4397
     36 H16        -3.1625   30.3357   19.1887 H       1  <0>         0.4530
     37 H17        -2.8375   31.1852   15.9246 H       1  <0>         0.0737
     38 H18        -2.0963   30.4835   17.3830 H       1  <0>         0.0737
     39 H19        -5.0899   30.8297   16.8985 H       1  <0>         0.0674
     40 H20        -4.1915   29.2970   16.7907 H       1  <0>         0.0848
     41 H21        -4.3488   30.1281   18.3569 H       1  <0>         0.0675
@<TRIPOS>BOND
     1     1     2    1
     2     1    22    1
     3     1    23    1
     4     1    24    1
     5     2     3    1
     6     2    25    1
     7     2    26    1
     8     3     4    1
     9     3     9    1
    10     4     5    1
    11     4    27    1
    12     4    28    1
    13     5     6    1
    14     5     7    1
    15     5     8    1
    16     7    29    1
    17     7    30    1
    18     7    31    1
    19     8    32    1
    20     9    14   ar
    21     9    10   ar
    22    10    11   ar
    23    10    33    1
    24    11    12   ar
    25    11    34    1
    26    12    13   ar
    27    12    15    1
    28    13    14   ar
    29    15    16    1
    30    15    35    1
    31    16    17   am
    32    16    36    1
    33    17    18    2
    34    17    19    1
    35    19    20    1
    36    20    21    1
    37    20    37    1
    38    20    38    1
    39    21    39    1
    40    21    40    1
    41    21    41    1
@<TRIPOS>SUBSTRUCTURE
     1 <0>         1 TEMP              0 ****  ****    0 ROOT


########## Name:		ZINC00000250
########## Energy Score:       -33212.332031
##########          vdw:       -33254.355469
##########           es:           14.795498
##########       polsol:           29.319792
##########      apolsol:           -2.091270
##########

@<TRIPOS>MOLECULE
ZINC00000250
 45 46 1 0 0
SMALL
USER_CHARGES
1-(4-ethylphenyl)-2-methyl-3-(1-piperidyl)propan-1-one

@<TRIPOS>ATOM
      1 C1         -2.3357   31.5173   23.4402 C.3     1  <0>        -0.1483
      2 C2         -2.2124   32.2201   22.0868 C.3     1  <0>        -0.0999
      3 C3         -1.3677   31.3831   21.1612 C.ar    1  <0>        -0.0263
      4 C4         -0.8715   31.9359   19.9935 C.ar    1  <0>        -0.1296
      5 C5         -0.0938   31.1779   19.1437 C.ar    1  <0>        -0.0686
      6 C6          0.1845   29.8442   19.4595 C.ar    1  <0>        -0.1990
      7 C7         -0.3251   29.2914   20.6387 C.ar    1  <0>        -0.0470
      8 C8         -1.0971   30.0639   21.4805 C.ar    1  <0>        -0.1289
      9 C9          1.0090   29.0266   18.5554 C.2     1  <0>         0.3897
     10 O1          1.7695   28.1991   19.0103 O.2     1  <0>        -0.4473
     11 C10         0.9080   29.2177   17.0639 C.3     1  <0>        -0.1507
     12 H1          0.7318   30.1813   16.8626 H       1  <0>         0.1064
     13 C11        -0.2383   28.3646   16.5169 C.3     1  <0>        -0.1463
     14 C12         2.2211   28.7907   16.4049 C.3     1  <0>         0.0009
     15 C13         4.6193   28.8936   16.7184 C.3     1  <0>        -0.0081
     16 C14         5.7567   29.7591   17.2656 C.3     1  <0>        -0.1478
     17 C15         5.5963   29.9054   18.7813 C.3     1  <0>        -0.1384
     18 C16         4.2255   30.5164   19.0850 C.3     1  <0>        -0.1485
     19 C17         3.1325   29.6290   18.4851 C.3     1  <0>        -0.0010
     20 H2         -1.3441   31.3854   23.8729 H       1  <0>         0.0570
     21 H3         -2.9467   32.1227   24.1098 H       1  <0>         0.0672
     22 H4         -2.8044   30.5429   23.3022 H       1  <0>         0.0575
     23 H5         -3.2042   32.3520   21.6542 H       1  <0>         0.0815
     24 H6         -1.7437   33.1945   22.2249 H       1  <0>         0.0812
     25 H7         -1.0907   32.9647   19.7490 H       1  <0>         0.1351
     26 H8          0.2964   31.6119   18.2351 H       1  <0>         0.1307
     27 H9         -0.1141   28.2624   20.8896 H       1  <0>         0.1365
     28 H10        -1.4913   29.6384   22.3915 H       1  <0>         0.1358
     29 H11        -0.0311   27.3118   16.7085 H       1  <0>         0.0769
     30 H12        -1.1687   28.6472   17.0093 H       1  <0>         0.0852
     31 H13        -0.3316   28.5269   15.4431 H       1  <0>         0.0858
     32 H14         2.3809   27.7252   16.5703 H       1  <0>         0.1408
     33 H15         2.1715   28.9887   15.3342 H       1  <0>         0.1435
     34 H16         4.6635   27.9048   17.1749 H       1  <0>         0.1342
     35 H17         4.7225   28.7993   15.6374 H       1  <0>         0.1251
     36 H18         5.7215   30.7436   16.7993 H       1  <0>         0.0858
     37 H19         6.7131   29.2852   17.0450 H       1  <0>         0.1135
     38 H20         6.3795   30.5567   19.1694 H       1  <0>         0.0946
     39 H21         5.6707   28.9255   19.2528 H       1  <0>         0.0830
     40 H22         4.1662   31.5129   18.6472 H       1  <0>         0.0864
     41 H23         4.0881   30.5838   20.1642 H       1  <0>         0.1138
     42 H24         2.1559   30.0689   18.6871 H       1  <0>         0.1298
     43 H25         3.1836   28.6368   18.9332 H       1  <0>         0.1321
     44 N1          3.3291   29.5486   17.0220 N.4     1  <0>        -0.3971
     45 H26         3.3390   30.4995   16.6346 H       1  <0>         0.4228
@<TRIPOS>BOND
     1     1     2    1
     2     1    20    1
     3     1    21    1
     4     1    22    1
     5     2     3    1
     6     2    23    1
     7     2    24    1
     8     3     8   ar
     9     3     4   ar
    10     4     5   ar
    11     4    25    1
    12     5     6   ar
    13     5    26    1
    14     6     7   ar
    15     6     9    1
    16     7     8   ar
    17     7    27    1
    18     8    28    1
    19     9    10    2
    20     9    11    1
    21    11    12    1
    22    11    13    1
    23    11    14    1
    24    13    29    1
    25    13    30    1
    26    13    31    1
    27    14    32    1
    28    14    33    1
    29    14    44    1
    30    15    16    1
    31    15    34    1
    32    15    35    1
    33    15    44    1
    34    16    17    1
    35    16    36    1
    36    16    37    1
    37    17    18    1
    38    17    38    1
    39    17    39    1
    40    18    19    1
    41    18    40    1
    42    18    41    1
    43    19    42    1
    44    19    43    1
    45    19    44    1
    46    44    45    1
@<TRIPOS>SUBSTRUCTURE
     1 <0>         1 TEMP              0 ****  ****    0 ROOT


########## Name:		ZINC00000257
########## Energy Score:       -38277.007812
##########          vdw:       -38294.566406
##########           es:          -22.290005
##########       polsol:           38.752510
##########      apolsol:            1.094740
##########

@<TRIPOS>MOLECULE
ZINC00000257
 47 47 1 0 0
SMALL
USER_CHARGES
methyl 3-[4-(2-hydroxy-3-isopropylamino-propoxy)phenyl]propanoate

@<TRIPOS>ATOM
      1 C1          2.3371   27.7585   24.1374 C.3     1  <0>        -0.1844
      2 C2          2.0216   27.4177   22.6795 C.3     1  <0>         0.0271
      3 C3          2.3216   25.9393   22.4248 C.3     1  <0>        -0.1862
      4 C4          0.2559   27.2938   21.0272 C.3     1  <0>        -0.0383
      5 C5         -1.2183   27.6088   20.7663 C.3     1  <0>         0.0856
      6 H1         -1.4478   27.4296   19.7159 H       1  <0>         0.1344
      7 C6         -1.4943   29.0750   21.1056 C.3     1  <0>         0.0299
      8 O1         -2.8835   29.3536   20.9196 O.3     1  <0>        -0.3024
      9 C7         -3.2882   30.6351   21.1218 C.ar    1  <0>         0.1164
     10 C8         -4.6236   30.9753   20.9623 C.ar    1  <0>        -0.1400
     11 C9         -5.0326   32.2786   21.1688 C.ar    1  <0>        -0.0708
     12 C10        -4.1122   33.2435   21.5341 C.ar    1  <0>        -0.1103
     13 C11        -2.7806   32.9070   21.6935 C.ar    1  <0>        -0.0736
     14 C12        -2.3666   31.6052   21.4882 C.ar    1  <0>        -0.2053
     15 C13        -4.5610   34.6645   21.7588 C.3     1  <0>        -0.0695
     16 C14        -4.6519   35.3893   20.4145 C.3     1  <0>        -0.1086
     17 C15        -5.2335   36.7639   20.6231 C.2     1  <0>         0.4578
     18 O2         -5.9826   36.9688   21.5488 O.2     1  <0>        -0.5053
     19 O3         -4.9193   37.7605   19.7806 O.3     1  <0>        -0.3607
     20 C16        -3.9688   37.4568   18.7257 C.3     1  <0>         0.0343
     21 O4         -2.0367   26.7687   21.5828 O.3     1  <0>        -0.5429
     22 H2          3.3906   27.5619   24.3366 H       1  <0>         0.1075
     23 H3          2.1234   28.8118   24.3188 H       1  <0>         0.0786
     24 H4          1.7222   27.1444   24.7953 H       1  <0>         0.0837
     25 H5          2.6365   28.0319   22.0216 H       1  <0>         0.1384
     26 H6          2.0968   25.6965   21.3863 H       1  <0>         0.0829
     27 H7          3.3751   25.7428   22.6241 H       1  <0>         0.1080
     28 H8          1.7068   25.3252   23.0828 H       1  <0>         0.0833
     29 H9          0.4296   26.2267   20.8884 H       1  <0>         0.1449
     30 H10         0.8767   27.8567   20.3301 H       1  <0>         0.1381
     31 H11        -0.9042   29.7166   20.4512 H       1  <0>         0.0810
     32 H12        -1.2213   29.2653   22.1436 H       1  <0>         0.0765
     33 H13        -5.3430   30.2219   20.6774 H       1  <0>         0.1344
     34 H14        -6.0714   32.5449   21.0404 H       1  <0>         0.1358
     35 H15        -2.0636   33.6625   21.9792 H       1  <0>         0.1292
     36 H16        -1.3265   31.3427   21.6133 H       1  <0>         0.1243
     37 H17        -5.5395   34.6649   22.2388 H       1  <0>         0.0844
     38 H18        -3.8421   35.1756   22.3992 H       1  <0>         0.0860
     39 H19        -3.6555   35.4783   19.9815 H       1  <0>         0.1085
     40 H20        -5.2924   34.8226   19.7388 H       1  <0>         0.1068
     41 H21        -3.0248   37.1384   19.1679 H       1  <0>         0.0646
     42 H22        -4.3644   36.6574   18.0992 H       1  <0>         0.0651
     43 H23        -3.8037   38.3466   18.1183 H       1  <0>         0.1043
     44 H24        -1.9826   26.9657   22.5280 H       1  <0>         0.3902
     45 N1          0.5940   27.6752   22.4115 N.4     1  <0>        -0.5138
     46 H25         0.3993   28.6745   22.5446 H       1  <0>         0.4364
     47 H26         0.0225   27.1252   23.0635 H       1  <0>         0.4337
@<TRIPOS>BOND
     1     1     2    1
     2     1    22    1
     3     1    23    1
     4     1    24    1
     5     2     3    1
     6     2    25    1
     7     2    45    1
     8     3    26    1
     9     3    27    1
    10     3    28    1
    11     4     5    1
    12     4    29    1
    13     4    30    1
    14     4    45    1
    15     5     6    1
    16     5     7    1
    17     5    21    1
    18     7     8    1
    19     7    31    1
    20     7    32    1
    21     8     9    1
    22     9    14   ar
    23     9    10   ar
    24    10    11   ar
    25    10    33    1
    26    11    12   ar
    27    11    34    1
    28    12    13   ar
    29    12    15    1
    30    13    14   ar
    31    13    35    1
    32    14    36    1
    33    15    16    1
    34    15    37    1
    35    15    38    1
    36    16    17    1
    37    16    39    1
    38    16    40    1
    39    17    18    2
    40    17    19    1
    41    19    20    1
    42    20    41    1
    43    20    42    1
    44    20    43    1
    45    21    44    1
    46    45    46    1
    47    45    47    1
@<TRIPOS>SUBSTRUCTURE
     1 <0>         1 TEMP              0 ****  ****    0 ROOT

