MODEL 1
REMARK VINA RESULT:     -11.1      0.000      0.000
REMARK  10 active torsions:
REMARK  status: ('A' for Active; 'I' for Inactive)
REMARK    1  A    between atoms: C1'_22  and  N10_20 
REMARK    2  A    between atoms: C1'_22  and  C2'_23 
REMARK    3  A    between atoms: C2'_23  and  O2'_24 
REMARK    4  A    between atoms: C2'_23  and  C3'_26 
REMARK    5  A    between atoms: C3'_26  and  O3'_27 
REMARK    6  A    between atoms: C3'_26  and  C4'_29 
REMARK    7  A    between atoms: C4'_29  and  O4'_30 
REMARK    8  A    between atoms: C4'_29  and  C5'_32 
REMARK    9  A    between atoms: C5'_32  and  O5'_33 
REMARK   10  A    between atoms: O5'_33  and  P_34 
ROOT
HETATM    1  N1  FMN A 149      25.313  13.398  82.917  1.00 10.80    -0.292 N 
ATOM      2  H1  FMN A 149      26.124  13.409  83.534  1.00  0.00     0.172 HD
HETATM    3  C2  FMN A 149      24.177  13.994  83.250  1.00 12.50     0.328 A 
HETATM    4  O2  FMN A 149      24.190  14.439  84.469  1.00 13.40    -0.247 OA
HETATM    5  N3  FMN A 149      23.086  13.992  82.437  1.00 11.10    -0.273 N 
ATOM      6  H3  FMN A 149      22.228  14.435  82.766  1.00  0.00     0.173 HD
HETATM    7  C4  FMN A 149      23.095  13.394  81.138  1.00 12.00     0.280 A 
HETATM    8  O4  FMN A 149      22.089  13.410  80.380  1.00 12.40    -0.265 OA
HETATM    9  C4A FMN A 149      24.204  12.771  80.674  1.00 11.20     0.146 A 
HETATM   10  N5  FMN A 149      24.418  12.170  79.557  1.00 11.60    -0.347 N 
ATOM     11  H5  FMN A 149      23.654  12.130  78.882  1.00  0.00     0.166 HD
HETATM   12  C5A FMN A 149      25.570  11.596  79.225  1.00 10.40     0.056 A 
HETATM   13  C6  FMN A 149      25.594  11.070  77.885  1.00 11.60     0.038 A 
HETATM   14  C7  FMN A 149      26.779  10.462  77.483  1.00 10.70    -0.057 A 
HETATM   15  C7M FMN A 149      27.006  10.028  75.992  1.00  9.40     0.048 C 
HETATM   16  C8  FMN A 149      27.912  10.406  78.299  1.00 12.10    -0.072 A 
HETATM   17  C8M FMN A 149      29.222   9.789  77.757  1.00 10.60     0.044 C 
HETATM   18  C9  FMN A 149      27.917  10.875  79.651  1.00 11.40     0.094 A 
HETATM   19  C9A FMN A 149      26.707  11.497  80.066  1.00 11.80     0.044 A 
HETATM   20  N10 FMN A 149      26.489  12.210  81.360  1.00 12.80    -0.330 N 
HETATM   21  C10 FMN A 149      25.342  12.784  81.738  1.00 13.20     0.144 A 
ENDROOT
BRANCH  20  22
HETATM   22  C1' FMN A 149      27.777  11.975  82.063  1.00 13.40     0.165 C 
BRANCH  22  23
HETATM   23  C2' FMN A 149      27.819  11.148  83.305  1.00 12.80     0.167 C 
BRANCH  23  24
HETATM   24  O2' FMN A 149      26.730  10.626  83.957  1.00 10.40    -0.391 OA
ATOM     25  H2' FMN A 149      26.146   9.960  83.614  1.00  0.00     0.210 HD
ENDBRANCH  23  24
BRANCH  23  26
HETATM   26  C3' FMN A 149      29.137  11.070  83.987  1.00 12.90     0.179 C 
BRANCH  26  27
HETATM   27  O3' FMN A 149      30.195  10.939  83.002  1.00 15.40    -0.390 OA
ATOM     28  H3' FMN A 149      29.819  10.843  82.135  1.00  0.00     0.210 HD
ENDBRANCH  26  27
BRANCH  26  29
HETATM   29  C4' FMN A 149      29.188   9.710  84.885  1.00 10.50     0.173 C 
BRANCH  29  30
HETATM   30  O4' FMN A 149      30.421  10.077  85.648  1.00 11.60    -0.391 OA
ATOM     31  H4' FMN A 149      30.886   9.266  85.477  1.00  0.00     0.210 HD
ENDBRANCH  29  30
BRANCH  29  32
HETATM   32  C5' FMN A 149      29.567   8.468  84.138  1.00 10.40     0.217 C 
BRANCH  32  33
HETATM   33  O5' FMN A 149      29.801   7.322  84.858  1.00  9.40    -0.280 OA
BRANCH  33  34
HETATM   34  P   FMN A 149      28.939   6.179  85.326  1.00  9.90     0.422 P 
HETATM   35  O1P FMN A 149      28.302   6.480  86.836  1.00  9.40    -0.617 OA
HETATM   36  O2P FMN A 149      29.742   4.843  85.702  1.00 11.80    -0.617 OA
HETATM   37  O3P FMN A 149      27.896   5.690  84.481  1.00  9.00    -0.617 OA
ENDBRANCH  33  34
ENDBRANCH  32  33
ENDBRANCH  29  32
ENDBRANCH  26  29
ENDBRANCH  23  26
ENDBRANCH  22  23
ENDBRANCH  20  22
TORSDOF 10
ENDMDL
MODEL 2
REMARK VINA RESULT:      -9.4      2.170      4.573
REMARK  10 active torsions:
REMARK  status: ('A' for Active; 'I' for Inactive)
REMARK    1  A    between atoms: C1'_22  and  N10_20 
REMARK    2  A    between atoms: C1'_22  and  C2'_23 
REMARK    3  A    between atoms: C2'_23  and  O2'_24 
REMARK    4  A    between atoms: C2'_23  and  C3'_26 
REMARK    5  A    between atoms: C3'_26  and  O3'_27 
REMARK    6  A    between atoms: C3'_26  and  C4'_29 
REMARK    7  A    between atoms: C4'_29  and  O4'_30 
REMARK    8  A    between atoms: C4'_29  and  C5'_32 
REMARK    9  A    between atoms: C5'_32  and  O5'_33 
REMARK   10  A    between atoms: O5'_33  and  P_34 
ROOT
HETATM    1  N1  FMN A 149      29.291  10.394  80.366  1.00 10.80    -0.292 N 
ATOM      2  H1  FMN A 149      29.821  10.436  81.237  1.00  0.00     0.172 HD
HETATM    3  C2  FMN A 149      29.752   9.754  79.302  1.00 12.50     0.328 A 
HETATM    4  O2  FMN A 149      30.972   9.339  79.463  1.00 13.40    -0.247 OA
HETATM    5  N3  FMN A 149      29.057   9.684  78.134  1.00 11.10    -0.273 N 
ATOM      6  H3  FMN A 149      29.483   9.210  77.338  1.00  0.00     0.173 HD
HETATM    7  C4  FMN A 149      27.753  10.251  77.980  1.00 12.00     0.280 A 
HETATM    8  O4  FMN A 149      27.105  10.169  76.902  1.00 12.40    -0.265 OA
HETATM    9  C4A FMN A 149      27.164  10.913  79.003  1.00 11.20     0.146 A 
HETATM   10  N5  FMN A 149      26.020  11.497  79.070  1.00 11.60    -0.347 N 
ATOM     11  H5  FMN A 149      25.428  11.484  78.239  1.00  0.00     0.166 HD
HETATM   12  C5A FMN A 149      25.559  12.116  80.152  1.00 10.40     0.056 A 
HETATM   13  C6  FMN A 149      24.213  12.610  80.011  1.00 11.60     0.038 A 
HETATM   14  C7  FMN A 149      23.679  13.263  81.118  1.00 10.70    -0.057 A 
HETATM   15  C7M FMN A 149      22.164  13.671  81.168  1.00  9.40     0.048 C 
HETATM   16  C8  FMN A 149      24.370  13.393  82.325  1.00 12.10    -0.072 A 
HETATM   17  C8M FMN A 149      23.683  14.057  83.540  1.00 10.60     0.044 C 
HETATM   18  C9  FMN A 149      25.723  12.957  82.492  1.00 11.40     0.094 A 
HETATM   19  C9A FMN A 149      26.275  12.289  81.364  1.00 11.80     0.044 A 
HETATM   20  N10 FMN A 149      27.598  11.598  81.316  1.00 12.80    -0.330 N 
HETATM   21  C10 FMN A 149      28.104  10.980  80.244  1.00 13.20     0.144 A 
ENDROOT
BRANCH  20  22
HETATM   22  C1' FMN A 149      28.157  11.910  82.656  1.00 13.40     0.165 C 
BRANCH  22  23
HETATM   23  C2' FMN A 149      28.123  10.889  83.745  1.00 12.80     0.167 C 
BRANCH  23  24
HETATM   24  O2' FMN A 149      27.038  10.125  84.093  1.00 10.40    -0.391 OA
ATOM     25  H2' FMN A 149      26.404  10.337  84.768  1.00  0.00     0.210 HD
ENDBRANCH  23  24
BRANCH  23  26
HETATM   26  C3' FMN A 149      29.307  10.859  84.643  1.00 12.90     0.179 C 
BRANCH  26  27
HETATM   27  O3' FMN A 149      30.120  12.043  84.428  1.00 15.40    -0.390 OA
ATOM     28  H3' FMN A 149      29.953  12.395  83.561  1.00  0.00     0.210 HD
ENDBRANCH  26  27
BRANCH  26  29
HETATM   29  C4' FMN A 149      30.246   9.589  84.241  1.00 10.50     0.173 C 
BRANCH  29  30
HETATM   30  O4' FMN A 149      30.748  10.171  82.958  1.00 11.60    -0.391 OA
ATOM     31  H4' FMN A 149      31.595   9.742  82.982  1.00  0.00     0.210 HD
ENDBRANCH  29  30
BRANCH  29  32
HETATM   32  C5' FMN A 149      29.505   8.356  83.827  1.00 10.40     0.217 C 
BRANCH  32  33
HETATM   33  O5' FMN A 149      28.771   7.688  84.776  1.00  9.40    -0.280 OA
BRANCH  33  34
HETATM   34  P   FMN A 149      28.774   6.278  85.308  1.00  9.90     0.422 P 
HETATM   35  O1P FMN A 149      28.316   6.234  86.909  1.00  9.40    -0.617 OA
HETATM   36  O2P FMN A 149      30.232   5.634  85.491  1.00 11.80    -0.617 OA
HETATM   37  O3P FMN A 149      28.067   5.256  84.604  1.00  9.00    -0.617 OA
ENDBRANCH  33  34
ENDBRANCH  32  33
ENDBRANCH  29  32
ENDBRANCH  26  29
ENDBRANCH  23  26
ENDBRANCH  22  23
ENDBRANCH  20  22
TORSDOF 10
ENDMDL
MODEL 3
REMARK VINA RESULT:      -8.6      2.724      5.048
REMARK  10 active torsions:
REMARK  status: ('A' for Active; 'I' for Inactive)
REMARK    1  A    between atoms: C1'_22  and  N10_20 
REMARK    2  A    between atoms: C1'_22  and  C2'_23 
REMARK    3  A    between atoms: C2'_23  and  O2'_24 
REMARK    4  A    between atoms: C2'_23  and  C3'_26 
REMARK    5  A    between atoms: C3'_26  and  O3'_27 
REMARK    6  A    between atoms: C3'_26  and  C4'_29 
REMARK    7  A    between atoms: C4'_29  and  O4'_30 
REMARK    8  A    between atoms: C4'_29  and  C5'_32 
REMARK    9  A    between atoms: C5'_32  and  O5'_33 
REMARK   10  A    between atoms: O5'_33  and  P_34 
ROOT
HETATM    1  N1  FMN A 149      31.175  10.326  82.298  1.00 10.80    -0.292 N 
ATOM      2  H1  FMN A 149      30.862  10.676  83.204  1.00  0.00     0.172 HD
HETATM    3  C2  FMN A 149      32.373   9.781  82.140  1.00 12.50     0.328 A 
HETATM    4  O2  FMN A 149      33.110   9.888  83.203  1.00 13.40    -0.247 OA
HETATM    5  N3  FMN A 149      32.805   9.305  80.941  1.00 11.10    -0.273 N 
ATOM      6  H3  FMN A 149      33.753   8.932  80.874  1.00  0.00     0.173 HD
HETATM    7  C4  FMN A 149      31.983   9.305  79.771  1.00 12.00     0.280 A 
HETATM    8  O4  FMN A 149      32.380   8.846  78.667  1.00 12.40    -0.265 OA
HETATM    9  C4A FMN A 149      30.729   9.816  79.810  1.00 11.20     0.146 A 
HETATM   10  N5  FMN A 149      29.843   9.921  78.884  1.00 11.60    -0.347 N 
ATOM     11  H5  FMN A 149      30.081   9.578  77.953  1.00  0.00     0.166 HD
HETATM   12  C5A FMN A 149      28.636  10.448  79.062  1.00 10.40     0.056 A 
HETATM   13  C6  FMN A 149      27.789  10.368  77.900  1.00 11.60     0.038 A 
HETATM   14  C7  FMN A 149      26.510  10.902  78.032  1.00 10.70    -0.057 A 
HETATM   15  C7M FMN A 149      25.426  10.703  76.915  1.00  9.40     0.048 C 
HETATM   16  C8  FMN A 149      26.037  11.437  79.233  1.00 12.10    -0.072 A 
HETATM   17  C8M FMN A 149      24.577  11.937  79.332  1.00 10.60     0.044 C 
HETATM   18  C9  FMN A 149      26.859  11.576  80.396  1.00 11.40     0.094 A 
HETATM   19  C9A FMN A 149      28.167  11.033  80.266  1.00 11.80     0.044 A 
HETATM   20  N10 FMN A 149      29.172  10.901  81.361  1.00 12.80    -0.330 N 
HETATM   21  C10 FMN A 149      30.401  10.392  81.220  1.00 13.20     0.144 A 
ENDROOT
BRANCH  20  22
HETATM   22  C1' FMN A 149      28.484  11.570  82.495  1.00 13.40     0.165 C 
BRANCH  22  23
HETATM   23  C2' FMN A 149      28.005  10.773  83.663  1.00 12.80     0.167 C 
BRANCH  23  24
HETATM   24  O2' FMN A 149      26.816  10.091  83.734  1.00 10.40    -0.391 OA
ATOM     25  H2' FMN A 149      26.715   9.147  83.703  1.00  0.00     0.210 HD
ENDBRANCH  23  24
BRANCH  23  26
HETATM   26  C3' FMN A 149      28.799  10.910  84.912  1.00 12.90     0.179 C 
BRANCH  26  27
HETATM   27  O3' FMN A 149      29.945  11.769  84.675  1.00 15.40    -0.390 OA
ATOM     28  H3' FMN A 149      30.736  11.345  84.988  1.00  0.00     0.210 HD
ENDBRANCH  26  27
BRANCH  26  29
HETATM   29  C4' FMN A 149      29.405   9.452  85.317  1.00 10.50     0.173 C 
BRANCH  29  30
HETATM   30  O4' FMN A 149      30.842   9.866  85.270  1.00 11.60    -0.391 OA
ATOM     31  H4' FMN A 149      30.916  10.061  86.196  1.00  0.00     0.210 HD
ENDBRANCH  29  30
BRANCH  29  32
HETATM   32  C5' FMN A 149      29.286   8.398  84.260  1.00 10.40     0.217 C 
BRANCH  32  33
HETATM   33  O5' FMN A 149      29.644   7.111  84.581  1.00  9.40    -0.280 OA
BRANCH  33  34
HETATM   34  P   FMN A 149      28.967   5.984  85.317  1.00  9.90     0.422 P 
HETATM   35  O1P FMN A 149      27.607   5.463  84.509  1.00  9.40    -0.617 OA
HETATM   36  O2P FMN A 149      28.246   6.412  86.684  1.00 11.80    -0.617 OA
HETATM   37  O3P FMN A 149      29.729   4.841  85.710  1.00  9.00    -0.617 OA
ENDBRANCH  33  34
ENDBRANCH  32  33
ENDBRANCH  29  32
ENDBRANCH  26  29
ENDBRANCH  23  26
ENDBRANCH  22  23
ENDBRANCH  20  22
TORSDOF 10
ENDMDL
